#       Name:                C:\Users\porto\OneDrive\projekt\beta2\ligandy\L_3ny9.pdb L_3ny9.pdb 1
#       Creating user name   student
#       Creation time:       Mon Apr 08 15:42:45 2019


#       File generated by GOLD software.
#

@<TRIPOS>MOLECULE
C:\Users\porto\OneDrive\projekt\beta2\ligandy\L_3ny9.pdb L_3ny9.pdb 1|3ny9|mol2|1|dock4
    58    59     1
SMALL
GASTEIGER


@<TRIPOS>ATOM
      1 C1         -34.1858   3.2814   8.8386 C.2            1 <1>                0.3751
      2 N1         -28.8043  11.1997   5.7206 N.3            1 <1>               -0.3112
      3 O1         -34.9419   2.4297   8.4031 O.2            1 <1>               -0.2415
      4 C2         -34.1123   2.1817  11.1164 C.3            1 <1>                0.0901
      5 O2         -33.7070   3.2206  10.2158 O.3            1 <1>               -0.4593
      6 C3         -33.2058   2.1836  12.3301 C.3            1 <1>               -0.0306
      7 O3         -34.2516   4.5601   6.7017 O.3            1 <1>               -0.4478
      8 C4         -33.7610   4.3958   7.9595 C.ar           1 <1>                0.2156
      9 O4         -31.2158   8.1251   7.4508 O.3            1 <1>               -0.4886
     10 C5         -32.8054   5.4972   8.2236 C.ar           1 <1>                0.0131
     11 O5         -31.9978  10.6893   7.5036 O.3            1 <1>               -0.3872
     12 C6         -31.9605   5.8499   9.4194 C.3            1 <1>               -0.0352
     13 C7         -32.7645   6.2974   7.0700 C.ar           1 <1>                0.0655
     14 C8         -33.6635   5.6535   6.2134 C.ar           1 <1>                0.1398
     15 C9         -33.9096   6.1490   4.9371 C.ar           1 <1>               -0.0185
     16 C10        -33.2445   7.3000   4.5119 C.ar           1 <1>               -0.0548
     17 C11        -32.3472   7.9476   5.3575 C.ar           1 <1>               -0.0191
     18 C12        -32.0955   7.4505   6.6378 C.ar           1 <1>                0.1316
     19 C13        -30.2498   9.0849   7.0044 C.3            1 <1>                0.1166
     20 C14        -30.9613  10.3698   6.5707 C.3            1 <1>                0.1015
     21 C15        -30.0038  11.5562   6.4985 C.3            1 <1>                0.0254
     22 C16        -27.7263  12.2033   5.9157 C.3            1 <1>                0.0021
     23 C17        -26.4572  11.7375   5.2077 C.3            1 <1>               -0.0499
     24 C18        -28.1437  13.5776   5.4009 C.3            1 <1>               -0.0499
     25 HN1        -28.4644  10.2967   6.0202 H              1 <1>                0.1223
     26 H21        -34.0429   1.2173  10.6131 H              1 <1>                0.0695
     27 H22        -35.1411   2.3554  11.4317 H              1 <1>                0.0695
     28 H31        -33.5137   1.3936  13.0154 H              1 <1>                0.0262
     29 H32        -32.1768   2.0110  12.0155 H              1 <1>                0.0262
     30 H33        -33.2737   3.1477  12.8335 H              1 <1>                0.0262
     31 HO5        -32.8131  10.8665   7.0290 H              1 <1>                0.2100
     32 H61        -31.3866   6.7521   9.2062 H              1 <1>                0.0279
     33 H62        -32.6051   6.0253  10.2811 H              1 <1>                0.0279
     34 H63        -31.2782   5.0280   9.6378 H              1 <1>                0.0279
     35 H9         -34.6086   5.6437   4.2874 H              1 <1>                0.0654
     36 H10        -33.4246   7.6937   3.5219 H              1 <1>                0.0620
     37 H11        -31.8402   8.8413   5.0244 H              1 <1>                0.0654
     38 H131       -29.6943   8.6753   6.1612 H              1 <1>                0.0723
     39 H132       -29.5582   9.3090   7.8165 H              1 <1>                0.0723
     40 H14        -31.4057  10.2136   5.5877 H              1 <1>                0.0640
     41 H151       -30.5064  12.4002   6.0249 H              1 <1>                0.0450
     42 H152       -29.7089  11.8470   7.5071 H              1 <1>                0.0450
     43 H16        -27.5177  12.2826   6.9821 H              1 <1>                0.0455
     44 H171       -25.6683  12.4758   5.3526 H              1 <1>                0.0245
     45 H172       -26.1398  10.7806   5.6224 H              1 <1>                0.0245
     46 H173       -26.6554  11.6232   4.1424 H              1 <1>                0.0245
     47 H181       -27.3316  14.2876   5.5596 H              1 <1>                0.0245
     48 H182       -28.3682  13.5144   4.3363 H              1 <1>                0.0245
     49 H183       -29.0301  13.9134   5.9391 H              1 <1>                0.0245
     50 ****       -29.0552  11.1758   4.7528 LP             1 <1>                0.0000
     51 ****       -35.2408   1.6784   8.9916 LP             1 <1>                0.0000
     52 ****       -35.2630   2.4824   7.4576 LP             1 <1>                0.0000
     53 ****       -35.2436   4.6832   6.7297 LP             1 <1>                0.0000
     54 ****       -34.0302   3.7655   6.1365 LP             1 <1>                0.0000
     55 ****       -30.6891   7.4158   7.9191 LP             1 <1>                0.0000
     56 ****       -31.7855   8.6101   8.1144 LP             1 <1>                0.0000
     57 ****       -31.7353  11.4988   8.0288 LP             1 <1>                0.0000
     58 ****       -32.1352   9.9185   8.1257 LP             1 <1>                0.0000
@<TRIPOS>BOND
    1    1    3 2     
    2    1    5 1     
    3    1    8 1     
    4    2   21 1     
    5    2   22 1     
    6    2   25 1     
    7    4    5 1     
    8    4    6 1     
    9    4   26 1     
   10    4   27 1     
   11    6   28 1     
   12    6   29 1     
   13    6   30 1     
   14    7    8 ar    
   15    7   14 ar    
   16    8   10 ar    
   17    9   18 1     
   18    9   19 1     
   19   10   12 1     
   20   10   13 ar    
   21   11   20 1     
   22   11   31 1     
   23   12   32 1     
   24   12   33 1     
   25   12   34 1     
   26   13   14 ar    
   27   13   18 ar    
   28   14   15 ar    
   29   15   16 ar    
   30   15   35 1     
   31   16   17 ar    
   32   16   36 1     
   33   17   18 ar    
   34   17   37 1     
   35   19   20 1     
   36   19   38 1     
   37   19   39 1     
   38   20   21 1     
   39   20   40 1     
   40   21   41 1     
   41   21   42 1     
   42   22   23 1     
   43   22   24 1     
   44   22   43 1     
   45   23   44 1     
   46   23   45 1     
   47   23   46 1     
   48   24   47 1     
   49   24   48 1     
   50   24   49 1     
   51    2   50 1     
   52    3   51 1     
   53    3   52 1     
   54    7   53 1     
   55    7   54 1     
   56    9   55 1     
   57    9   56 1     
   58   11   57 1     
   59   11   58 1     
@<TRIPOS>SUBSTRUCTURE
      1 ****           1
@<TRIPOS>SET
LONE_PAIRS      STATIC     ATOMS    <user>   **** ""
9 50 51 52 53 54 55 56 57 58
DONOR_HYDROGENS      STATIC     ATOMS    <user>   **** ""
2 25 31
ATOM$BLUE        STATIC     ATOMS    COLORGROUP SYSTEM
9 50 51 52 53 54 55 56 57 58
ATOM$RED        STATIC     ATOMS    COLORGROUP SYSTEM
2 25 31
@<TRIPOS>COMMENT
> <Gold.Version>
5.5

> <Gold.Id.Protein>
unknown|dok_beta2|pdb

> <Gold.Protein.RotatedTorsions>
[ 4175 4166 4165 4163 ] final   81.77 input -179.98 | X-H torsion
[ 1294 1290 1288 1285 ] final  169.32 input -179.99 | X-H torsion
[ 4033 4024 4023 4021 ] final  -14.93 input  179.98 | X-H torsion
[ 1412 1408 1406 1403 ] final  -60.09 input -179.99 | X-H torsion
[ 2830 2825 2824 2821 ] final   -1.92 input -179.98 | X-H torsion
[ 2723 2714 2713 2711 ] final  -88.88 input -179.98 | X-H torsion
[ 2773 2768 2767 2764 ] final  147.43 input  180.00 | X-H torsion

> <Gold.Protein.ActiveResidues>
 TRP109  THR110  ASP113  VAL114  VAL117  THR118  PHE193  TYR199  SER203  SER207 
 PHE208  TRP286  PHE289  PHE290  ASN293  TYR308  ASN312  TYR316 

> <Gold.Protein.RotatedAtoms>
  -34.0590    3.5702    1.4997 H   0  0  0  0  0  0  0  0  0  0  0  0  # atno 1294 bound_to 1290
  -26.8695   15.1992    3.1452 H   0  0  0  0  0  0  0  0  0  0  0  0  # atno 1412 bound_to 1408
  -26.0624    8.3840    2.4429 H   0  0  0  0  0  0  0  0  0  0  0  0  # atno 2723 bound_to 2714
  -24.4728    9.4993    2.5010 H   0  0  0  0  0  0  0  0  0  0  0  0  # atno 2773 bound_to 2768
  -23.4867   13.9428    2.2936 H   0  0  0  0  0  0  0  0  0  0  0  0  # atno 2830 bound_to 2825
  -28.9857    5.5394   10.6255 H   0  0  0  0  0  0  0  0  0  0  0  0  # atno 4033 bound_to 4024
  -37.5885    8.9422    7.2185 H   0  0  0  0  0  0  0  0  0  0  0  0  # atno 4175 bound_to 4166
  -37.0598    8.2485    8.5603 LP  0  0  0  0  0  0  0  0  0  0  0  0  # atno 4597 bound_to 4166
  -36.0742    9.1973    7.6687 LP  0  0  0  0  0  0  0  0  0  0  0  0  # atno 4598 bound_to 4166
  -35.4216    4.3929    1.3332 LP  0  0  0  0  0  0  0  0  0  0  0  0  # atno 4603 bound_to 1290
  -34.5239    4.5337    2.6900 LP  0  0  0  0  0  0  0  0  0  0  0  0  # atno 4604 bound_to 1290
  -27.7221    6.0594   11.4593 LP  0  0  0  0  0  0  0  0  0  0  0  0  # atno 4607 bound_to 4024
  -28.9940    7.0430   11.1742 LP  0  0  0  0  0  0  0  0  0  0  0  0  # atno 4608 bound_to 4024
  -27.1521   14.5974    1.6895 LP  0  0  0  0  0  0  0  0  0  0  0  0  # atno 4611 bound_to 1408
  -28.3630   14.7606    2.7729 LP  0  0  0  0  0  0  0  0  0  0  0  0  # atno 4612 bound_to 1408
  -25.0558   13.6329    2.2486 LP  0  0  0  0  0  0  0  0  0  0  0  0  # atno 4613 bound_to 2825
  -24.0482   12.7044    3.1370 LP  0  0  0  0  0  0  0  0  0  0  0  0  # atno 4614 bound_to 2825

> <Gold.Score>
     Score     S(PLP)   S(hbond)     S(cho)   S(metal)  DE(clash)   DE(tors)     intcor
     72.31     -70.25       0.99       0.00       0.00       0.00       0.58       0.25

> <Gold.PLP.Fitness>
72.3088

> <Gold.PLP.PLP>
-70.2464

> <Gold.PLP.part.hbond>
-1.0000

> <Gold.PLP.part.metal>
0.0000

> <Gold.PLP.part.buried>
-8.2454

> <Gold.PLP.part.nonpolar>
-62.7283

> <Gold.PLP.part.repulsive>
0.2179

> <Gold.PLP.ligand.clash>
0.0000

> <Gold.PLP.ligand.torsion>
0.5813

> <Gold.PLP.Chemscore.Hbond>
0.9913

> <Gold.PLP.Chemscore.CHOScore>
0.0000

> <Gold.PLP.Chemscore.Metal>
0.0000

> <Gold.Chemscore.Hbonds>
donor molecule, donor type, donor heavy atom, donor atom, acceptor molecule, acceptor atom, score
      L1  H    11    31       P1  1334  0.99

> <Gold.PLP.Chemscore.Internal.Correction>
0.2513

