#       Name:                C:\Users\porto\OneDrive\projekt\beta2\ligandy\L_3d4s.pdb L_3d4s.pdb 1
#       Creating user name   student
#       Creation time:       Mon Apr 08 15:40:24 2019


#       File generated by GOLD software.
#

@<TRIPOS>MOLECULE
C:\Users\porto\OneDrive\projekt\beta2\ligandy\L_3d4s.pdb L_3d4s.pdb 1|3d4s|mol2|1|dock4
    54    55     1
SMALL
GASTEIGER


@<TRIPOS>ATOM
      1 O1         -26.0722   7.2385   7.7934 O.3            1 <1>               -0.3767
      2 C2         -25.2600   7.8445   6.7979 C.3            1 <1>                0.0634
      3 C3         -25.5599   9.3323   6.5411 C.3            1 <1>                0.0372
      4 N4         -26.9451   9.7042   6.6856 N.pl3          1 <1>               -0.3060
      5 C5         -27.7907   8.9150   7.5586 C.3            1 <1>                0.0372
      6 C6         -27.4480   7.4243   7.5190 C.3            1 <1>                0.0634
      7 C7         -27.4347  10.9019   6.2240 C.ar           1 <1>                0.1942
      8 N8         -26.6797  11.7041   5.4549 N.ar           1 <1>               -0.1717
      9 S9         -27.5381  13.0422   5.0500 S.2            1 <1>                0.1206
     10 N10        -28.9385  12.7033   5.8262 N.ar           1 <1>               -0.1530
     11 C11        -28.8066  11.5310   6.4286 C.ar           1 <1>                0.2652
     12 O12        -29.7963  10.9621   7.1936 O.3            1 <1>               -0.4710
     13 C13        -31.0848  11.6397   7.2634 C.3            1 <1>                0.1183
     14 C14        -31.9029  10.6077   8.0538 C.3            1 <1>                0.1016
     15 O15        -33.1851  11.0524   8.3894 O.3            1 <1>               -0.3872
     16 C16        -31.9603   9.3069   7.2736 C.3            1 <1>                0.0256
     17 N17        -33.0901   8.4245   7.4539 N.3            1 <1>               -0.3088
     18 C18        -32.6945   7.0948   6.9250 C.3            1 <1>                0.0108
     19 C19        -32.1574   7.2090   5.5062 C.3            1 <1>               -0.0473
     20 C20        -31.5783   6.5118   7.8294 C.3            1 <1>               -0.0473
     21 C21        -33.9192   6.1571   6.9281 C.3            1 <1>               -0.0473
     22 H21        -25.3590   7.2907   5.8644 H              1 <1>                0.0575
     23 H22        -24.2108   7.7298   7.0690 H              1 <1>                0.0575
     24 H31        -25.2158   9.6021   5.5424 H              1 <1>                0.0487
     25 H32        -24.9512   9.9435   7.2080 H              1 <1>                0.0487
     26 H51        -28.8338   9.0545   7.2752 H              1 <1>                0.0487
     27 H52        -27.6977   9.2811   8.5814 H              1 <1>                0.0487
     28 H61        -28.0420   6.8955   8.2645 H              1 <1>                0.0575
     29 H62        -27.6788   7.0249   6.5314 H              1 <1>                0.0575
     30 H131       -31.4965  11.7265   6.2575 H              1 <1>                0.0724
     31 H132       -30.9795  12.5454   7.8612 H              1 <1>                0.0724
     32 H14        -31.3702  10.4091   8.9843 H              1 <1>                0.0640
     33 HO15       -33.7360  11.0649   7.6033 H              1 <1>                0.2100
     34 H161       -31.0418   8.7475   7.4481 H              1 <1>                0.0451
     35 H162       -31.8450   9.5243   6.2119 H              1 <1>                0.0451
     36 HN17       -33.3173   8.3631   8.4357 H              1 <1>                0.1225
     37 H191       -31.8750   6.2207   5.1429 H              1 <1>                0.0247
     38 H192       -32.9281   7.6274   4.8583 H              1 <1>                0.0247
     39 H193       -31.2839   7.8612   5.4989 H              1 <1>                0.0247
     40 H201       -31.2780   5.5339   7.4521 H              1 <1>                0.0247
     41 H202       -30.7193   7.1824   7.8249 H              1 <1>                0.0247
     42 H203       -31.9523   6.4085   8.8483 H              1 <1>                0.0247
     43 H211       -33.6304   5.1807   6.5398 H              1 <1>                0.0247
     44 H212       -34.2911   6.0476   7.9472 H              1 <1>                0.0247
     45 H213       -34.7026   6.5799   6.2993 H              1 <1>                0.0247
     46 ****       -25.8591   7.6474   8.6807 LP             1 <1>                0.0000
     47 ****       -25.8753   6.2585   7.8221 LP             1 <1>                0.0000
     48 ****       -25.7392  11.5147   5.1727 LP             1 <1>                0.0000
     49 ****       -29.7538  13.2820   5.8429 LP             1 <1>                0.0000
     50 ****       -29.4465  10.8923   8.1278 LP             1 <1>                0.0000
     51 ****       -29.9623  10.0452   6.8305 LP             1 <1>                0.0000
     52 ****       -33.1285  11.9749   8.7712 LP             1 <1>                0.0000
     53 ****       -33.5852  10.4352   9.0668 LP             1 <1>                0.0000
     54 ****       -33.8980   8.7636   6.9718 LP             1 <1>                0.0000
@<TRIPOS>BOND
    1    1    2 1     
    2    1    6 1     
    3    2    3 1     
    4    2   22 1     
    5    2   23 1     
    6    3    4 1     
    7    3   24 1     
    8    3   25 1     
    9    4    7 1     
   10    4    5 1     
   11    5    6 1     
   12    5   26 1     
   13    5   27 1     
   14    6   28 1     
   15    6   29 1     
   16    7    8 ar    
   17    7   11 ar    
   18    8    9 ar    
   19    9   10 ar    
   20   10   11 ar    
   21   11   12 1     
   22   12   13 1     
   23   13   14 1     
   24   13   30 1     
   25   13   31 1     
   26   14   15 1     
   27   14   16 1     
   28   14   32 1     
   29   15   33 1     
   30   16   17 1     
   31   16   34 1     
   32   16   35 1     
   33   17   18 1     
   34   17   36 1     
   35   18   19 1     
   36   18   20 1     
   37   18   21 1     
   38   19   37 1     
   39   19   38 1     
   40   19   39 1     
   41   20   40 1     
   42   20   41 1     
   43   20   42 1     
   44   21   43 1     
   45   21   44 1     
   46   21   45 1     
   47    1   46 1     
   48    1   47 1     
   49    8   48 1     
   50   10   49 1     
   51   12   50 1     
   52   12   51 1     
   53   15   52 1     
   54   15   53 1     
   55   17   54 1     
@<TRIPOS>SUBSTRUCTURE
      1 ****           1
@<TRIPOS>SET
LONE_PAIRS      STATIC     ATOMS    <user>   **** ""
9 46 47 48 49 50 51 52 53 54
DONOR_HYDROGENS      STATIC     ATOMS    <user>   **** ""
2 33 36
ATOM$BLUE        STATIC     ATOMS    COLORGROUP SYSTEM
9 46 47 48 49 50 51 52 53 54
ATOM$RED        STATIC     ATOMS    COLORGROUP SYSTEM
2 33 36
@<TRIPOS>COMMENT
> <Gold.Version>
5.5

> <Gold.Id.Protein>
unknown|dok_beta2|pdb

> <Gold.Protein.RotatedTorsions>
[ 4175 4166 4165 4163 ] final   86.63 input -179.98 | X-H torsion
[ 1294 1290 1288 1285 ] final -154.70 input -179.99 | X-H torsion
[ 4033 4024 4023 4021 ] final  -17.73 input  179.98 | X-H torsion
[ 1412 1408 1406 1403 ] final  171.26 input -179.99 | X-H torsion
[ 2830 2825 2824 2821 ] final   16.49 input -179.98 | X-H torsion
[ 2723 2714 2713 2711 ] final -156.78 input -179.98 | X-H torsion
[ 2773 2768 2767 2764 ] final  -15.55 input  180.00 | X-H torsion

> <Gold.Protein.ActiveResidues>
 TRP109  THR110  ASP113  VAL114  VAL117  THR118  PHE193  TYR199  SER203  SER207 
 PHE208  TRP286  PHE289  PHE290  ASN293  TYR308  ASN312  TYR316 

> <Gold.Protein.RotatedAtoms>
  -33.8805    3.7293    2.0051 H   0  0  0  0  0  0  0  0  0  0  0  0  # atno 1294 bound_to 1290
  -27.2964   14.5857    1.6955 H   0  0  0  0  0  0  0  0  0  0  0  0  # atno 1412 bound_to 1408
  -26.6464    7.7183    2.9302 H   0  0  0  0  0  0  0  0  0  0  0  0  # atno 2723 bound_to 2714
  -23.8093   10.9338    3.3406 H   0  0  0  0  0  0  0  0  0  0  0  0  # atno 2773 bound_to 2768
  -23.3464   13.7547    2.4628 H   0  0  0  0  0  0  0  0  0  0  0  0  # atno 2830 bound_to 2825
  -28.9508    5.5136   10.6337 H   0  0  0  0  0  0  0  0  0  0  0  0  # atno 4033 bound_to 4024
  -37.5399    8.9861    7.1789 H   0  0  0  0  0  0  0  0  0  0  0  0  # atno 4175 bound_to 4166
  -37.1345    8.2378    8.5340 LP  0  0  0  0  0  0  0  0  0  0  0  0  # atno 4597 bound_to 4166
  -36.0502    9.1622    7.7362 LP  0  0  0  0  0  0  0  0  0  0  0  0  # atno 4598 bound_to 4166
  -35.1127    4.0088    1.0228 LP  0  0  0  0  0  0  0  0  0  0  0  0  # atno 4603 bound_to 1290
  -35.0188    4.7519    2.4738 LP  0  0  0  0  0  0  0  0  0  0  0  0  # atno 4604 bound_to 1290
  -27.7230    6.1025   11.4751 LP  0  0  0  0  0  0  0  0  0  0  0  0  # atno 4607 bound_to 4024
  -29.0294    7.0267   11.1498 LP  0  0  0  0  0  0  0  0  0  0  0  0  # atno 4608 bound_to 4024
  -28.3257   14.8141    2.8994 LP  0  0  0  0  0  0  0  0  0  0  0  0  # atno 4611 bound_to 1408
  -26.7446   15.1832    3.0737 LP  0  0  0  0  0  0  0  0  0  0  0  0  # atno 4612 bound_to 1408
  -24.9033   13.8508    2.1065 LP  0  0  0  0  0  0  0  0  0  0  0  0  # atno 4613 bound_to 2825
  -24.3471   12.6827    3.1028 LP  0  0  0  0  0  0  0  0  0  0  0  0  # atno 4614 bound_to 2825

> <Gold.Score>
     Score     S(PLP)   S(hbond)     S(cho)   S(metal)  DE(clash)   DE(tors)     intcor
     74.31     -66.31       2.96       0.00       0.00       0.00       0.55       0.21

> <Gold.PLP.Fitness>
74.3067

> <Gold.PLP.PLP>
-66.3134

> <Gold.PLP.part.hbond>
-4.5214

> <Gold.PLP.part.metal>
0.0000

> <Gold.PLP.part.buried>
-9.0014

> <Gold.PLP.part.nonpolar>
-54.3779

> <Gold.PLP.part.repulsive>
0.1780

> <Gold.PLP.ligand.clash>
0.0000

> <Gold.PLP.ligand.torsion>
0.5477

> <Gold.PLP.Chemscore.Hbond>
2.9600

> <Gold.PLP.Chemscore.CHOScore>
0.0000

> <Gold.PLP.Chemscore.Metal>
0.0000

> <Gold.Chemscore.Hbonds>
donor molecule, donor type, donor heavy atom, donor atom, acceptor molecule, acceptor atom, score
      L1  H    15    33       P1  1334  1.00
      L1  H    17    36       P1  4098  1.00
      P1  H  4097  4104       L1    15  0.96

> <Gold.PLP.Chemscore.Internal.Correction>
0.2087

