#       Name:                C:\Users\porto\OneDrive\projekt\beta1\ligandy\L_2y02.pdb L_2y02.pdb 1
#       Creating user name   student
#       Creation time:       Mon Apr 08 15:11:36 2019


#       File generated by GOLD software.
#

@<TRIPOS>MOLECULE
C:\Users\porto\OneDrive\projekt\beta1\ligandy\L_2y02.pdb L_2y02.pdb 1|2y02|mol2|1|dock18
    60    62     1
SMALL
GASTEIGER


@<TRIPOS>ATOM
      1 C1         -23.8191  11.6462  22.0167 C.ar           1 <1>               -0.0471
      2 N1         -25.3525  13.9552  21.4888 N.am           1 <1>               -0.3192
      3 O1         -25.3939  14.3337  23.7007 O.2            1 <1>               -0.2679
      4 C2         -24.1516  11.9623  20.7043 C.ar           1 <1>                0.0078
      5 N2         -23.3243   7.9731  18.1861 N.3            1 <1>               -0.3104
      6 O2         -26.0536  14.6467  18.8795 O.3            1 <1>               -0.5047
      7 C3         -23.7329  11.1486  19.5160 C.ar           1 <1>               -0.0086
      8 O3         -23.0608   2.8911  12.5044 O.3            1 <1>               -0.4951
      9 C4         -24.1302  11.5901  18.2361 C.ar           1 <1>               -0.0519
     10 O4         -23.5970   8.9328  20.4693 O.3            1 <1>               -0.3859
     11 C5         -24.8873  12.7374  18.0153 C.ar           1 <1>               -0.0178
     12 C6         -25.3040  13.5423  19.0774 C.ar           1 <1>                0.1407
     13 C7         -24.9542  13.1921  20.4664 C.ar           1 <1>                0.0915
     14 C8         -24.2598  12.4831  23.0393 C.ar           1 <1>                0.0034
     15 C9         -25.0184  13.6187  22.7511 C.ar           1 <1>                0.2493
     16 C10        -22.9069   9.9113  19.6772 C.3            1 <1>                0.0932
     17 C11        -22.6637   9.2710  18.3126 C.3            1 <1>                0.0264
     18 C12        -23.6383   7.4104  16.8702 C.3            1 <1>                0.0089
     19 C13        -24.4354   8.3657  15.9756 C.3            1 <1>               -0.0494
     20 C14        -24.3902   6.0869  17.0092 C.3            1 <1>               -0.0125
     21 C15        -24.0508   5.2302  15.8120 C.ar           1 <1>               -0.0457
     22 C16        -23.2357   5.7514  14.8121 C.ar           1 <1>               -0.0551
     23 C17        -22.9013   4.9691  13.7078 C.ar           1 <1>               -0.0197
     24 C18        -23.3863   3.6625  13.6034 C.ar           1 <1>                0.1201
     25 C19        -24.2036   3.1401  14.6103 C.ar           1 <1>               -0.0197
     26 C20        -24.5398   3.9229  15.7104 C.ar           1 <1>               -0.0551
     27 C21        -23.4929   1.5279  12.4056 C.3            1 <1>                0.0788
     28 H1         -23.2305  10.7660  22.2275 H              1 <1>                0.0626
     29 HN1        -25.9033  14.7836  21.3153 H              1 <1>                0.1690
     30 HN2        -24.1766   8.0919  18.7141 H              1 <1>                0.1223
     31 HO2        -26.2317  14.7492  17.9421 H              1 <1>                0.2922
     32 H4         -23.8462  11.0272  17.3592 H              1 <1>                0.0622
     33 HO4        -24.2979   8.5342  19.9479 H              1 <1>                0.2103
     34 H5         -25.1620  13.0182  17.0089 H              1 <1>                0.0655
     35 H8         -24.0147  12.2562  24.0665 H              1 <1>                0.0672
     36 H10        -21.9541  10.1603  20.1448 H              1 <1>                0.0656
     37 H111       -23.0231   9.9384  17.5291 H              1 <1>                0.0453
     38 H112       -21.5923   9.1492  18.1548 H              1 <1>                0.0453
     39 H12        -22.6939   7.2010  16.3680 H              1 <1>                0.0461
     40 H131       -24.6336   7.8863  15.0169 H              1 <1>                0.0245
     41 H132       -25.3794   8.6141  16.4591 H              1 <1>                0.0245
     42 H133       -23.8603   9.2771  15.8127 H              1 <1>                0.0245
     43 H141       -25.4631   6.2792  17.0259 H              1 <1>                0.0328
     44 H142       -24.0695   5.5813  17.9198 H              1 <1>                0.0328
     45 H16        -22.8624   6.7621  14.8912 H              1 <1>                0.0621
     46 H17        -22.2670   5.3730  12.9326 H              1 <1>                0.0654
     47 H19        -24.5746   2.1286  14.5346 H              1 <1>                0.0654
     48 H20        -25.1773   3.5229  16.4853 H              1 <1>                0.0621
     49 H211       -23.1342   1.0990  11.4700 H              1 <1>                0.0660
     50 H212       -23.0917   0.9572  13.2432 H              1 <1>                0.0660
     51 H213       -24.5817   1.4884  12.4287 H              1 <1>                0.0660
     52 ****       -25.9403  15.1525  23.5245 LP             1 <1>                0.0000
     53 ****       -25.1488  14.0884  24.6386 LP             1 <1>                0.0000
     54 ****       -22.6614   7.2940  18.5015 LP             1 <1>                0.0000
     55 ****       -25.5597  15.4491  19.2146 LP             1 <1>                0.0000
     56 ****       -26.9176  14.5562  19.3749 LP             1 <1>                0.0000
     57 ****       -23.4299   3.3650  11.7049 LP             1 <1>                0.0000
     58 ****       -22.0623   2.8774  12.4522 LP             1 <1>                0.0000
     59 ****       -23.9914   9.3745  21.2752 LP             1 <1>                0.0000
     60 ****       -22.9533   8.2245  20.7589 LP             1 <1>                0.0000
@<TRIPOS>BOND
    1    1    4 ar    
    2    1   14 ar    
    3    1   28 1     
    4    2   13 ar    
    5    2   15 am    
    6    2   29 1     
    7    3   15 2     
    8    4    7 ar    
    9    4   13 ar    
   10    5   18 1     
   11    5   17 1     
   12    5   30 1     
   13    6   12 1     
   14    6   31 1     
   15    7   16 1     
   16    7    9 ar    
   17    8   27 1     
   18    8   24 1     
   19    9   11 ar    
   20    9   32 1     
   21   10   16 1     
   22   10   33 1     
   23   11   12 ar    
   24   11   34 1     
   25   12   13 ar    
   26   14   15 ar    
   27   14   35 1     
   28   16   17 1     
   29   16   36 1     
   30   17   37 1     
   31   17   38 1     
   32   18   19 1     
   33   18   20 1     
   34   18   39 1     
   35   19   40 1     
   36   19   41 1     
   37   19   42 1     
   38   20   21 1     
   39   20   43 1     
   40   20   44 1     
   41   21   22 ar    
   42   21   26 ar    
   43   22   23 ar    
   44   22   45 1     
   45   23   24 ar    
   46   23   46 1     
   47   24   25 ar    
   48   25   26 ar    
   49   25   47 1     
   50   26   48 1     
   51   27   49 1     
   52   27   50 1     
   53   27   51 1     
   54    3   52 1     
   55    3   53 1     
   56    5   54 1     
   57    6   55 1     
   58    6   56 1     
   59    8   57 1     
   60    8   58 1     
   61   10   59 1     
   62   10   60 1     
@<TRIPOS>SUBSTRUCTURE
      1 ****           1
@<TRIPOS>SET
LONE_PAIRS      STATIC     ATOMS    <user>   **** ""
9 52 53 54 55 56 57 58 59 60
DONOR_HYDROGENS      STATIC     ATOMS    <user>   **** ""
4 29 30 31 33
ATOM$BLUE        STATIC     ATOMS    COLORGROUP SYSTEM
9 52 53 54 55 56 57 58 59 60
ATOM$RED        STATIC     ATOMS    COLORGROUP SYSTEM
4 29 30 31 33
@<TRIPOS>COMMENT
> <Gold.Version>
5.5

> <Gold.Id.Protein>
unknown|bialko_beta1|pdb

> <Gold.Protein.ActiveResidues>
 ALA86   ASP87   VAL90   VAL94   VAL95   GLY98   ALA99   LEU101  VAL102  CYS114 
 GLU115  TRP117  THR118  SER119  LEU120  ASP121  VAL122  CYS124  VAL125  THR126 
 SER128  SER173  PHE174  ILE177  CYS199  ASP200  PHE201  TYR207  SER215  PHE299 
 TRP303  PHE306  PHE307  ASN310  PHE325  VAL326  ASN329  TRP330  GLY332  TYR333 
 SER336 

> <Gold.Score>
     Score         DG    S(hbond)    S(metal)    S(lipo)     H(rot)  DE(clash)    DE(int)     intcor
     34.40     -35.86       1.97        0.00     276.65       3.35       0.36       1.11       0.08

> <Gold.Chemscore.Fitness>
34.3994

> <Gold.Chemscore.DG>
-35.8629

> <Gold.Chemscore.ZeroCoef>
-5.4800

> <Gold.Chemscore.Hbond>
1.9733

> <Gold.Chemscore.Metal>
0.0000

> <Gold.Chemscore.Lipo>
276.6464

> <Gold.Chemscore.Internal_Hbond>
0.0000

> <Gold.Chemscore.DEClash>
0.3556

> <Gold.Chemscore.DEInternal>
1.1080

> <Gold.Chemscore.Rot>
3.3498

> <Gold.Chemscore.Internal.Correction>
0.0828

> <Gold.Chemscore.Hbonds>
donor molecule, donor type, donor heavy atom, donor atom, acceptor molecule, acceptor atom, score
      L1  H     5    30       P1  2066  0.98
      L1  H    10    33       P1  2066  1.00

> <Gold.Chemscore.Hbond.Weighted>
-6.5908

> <Gold.Chemscore.Metal.Weighted>
-0.0000

> <Gold.Chemscore.Lipo.Weighted>
-32.3676

> <Gold.Chemscore.Internal_Hbond.Weighted>
0.0000

> <Gold.Chemscore.DEClash.Weighted>
0.3556

> <Gold.Chemscore.DEInternal.Weighted>
1.1080

> <Gold.Chemscore.Rot.Weighted>
8.5756

> <Gold.Chemscore.Internal.Correction.Weighted>
0.0828

