#       Name:                C:\Users\porto\OneDrive\projekt\beta2\ligandy\L_3d4s.pdb L_3d4s.pdb 1
#       Creating user name   student
#       Creation time:       Mon Apr 08 15:45:55 2019


#       File generated by GOLD software.
#

@<TRIPOS>MOLECULE
C:\Users\porto\OneDrive\projekt\beta2\ligandy\L_3d4s.pdb L_3d4s.pdb 1|3d4s|mol2|1|dock3
    54    55     1
SMALL
GASTEIGER


@<TRIPOS>ATOM
      1 O1         -25.7358   7.2285   7.1932 O.3            1 <1>               -0.3767
      2 C2         -25.8123   7.4702   5.7955 C.3            1 <1>                0.0634
      3 C3         -26.0226   8.9452   5.4085 C.3            1 <1>                0.0372
      4 N4         -26.8306   9.7036   6.3304 N.pl3          1 <1>               -0.3060
      5 C5         -26.8867   9.2831   7.7160 C.3            1 <1>                0.0372
      6 C6         -26.8586   7.7610   7.8702 C.3            1 <1>                0.0634
      7 C7         -27.3531  10.9325   6.0080 C.ar           1 <1>                0.1942
      8 N8         -26.6006  11.8614   5.3948 N.ar           1 <1>               -0.1717
      9 S9         -27.5003  13.2070   5.1276 S.2            1 <1>                0.1206
     10 N10        -28.9187  12.7100   5.7756 N.ar           1 <1>               -0.1530
     11 C11        -28.7610  11.4727   6.2215 C.ar           1 <1>                0.2652
     12 O12        -29.7583  10.7659   6.8494 O.3            1 <1>               -0.4710
     13 C13        -31.1114  11.3061   6.8102 C.3            1 <1>                0.1183
     14 C14        -31.8324  10.3270   7.7486 C.3            1 <1>                0.1016
     15 O15        -32.9337  10.8895   8.4007 O.3            1 <1>               -0.3872
     16 C16        -32.2307   9.0857   6.9710 C.3            1 <1>                0.0256
     17 N17        -33.2896   8.2438   7.4785 N.3            1 <1>               -0.3088
     18 C18        -33.0507   6.8764   6.9519 C.3            1 <1>                0.0108
     19 C19        -34.3353   6.0612   6.9458 C.3            1 <1>               -0.0473
     20 C20        -32.5307   6.9879   5.4956 C.3            1 <1>               -0.0473
     21 C21        -32.0038   6.1638   7.8324 C.3            1 <1>               -0.0473
     22 H21        -26.6135   6.8678   5.3679 H              1 <1>                0.0575
     23 H22        -24.9085   7.0967   5.3147 H              1 <1>                0.0575
     24 H31        -26.4649   8.9970   4.4134 H              1 <1>                0.0487
     25 H32        -25.0527   9.4306   5.2956 H              1 <1>                0.0487
     26 H51        -27.7920   9.6772   8.1775 H              1 <1>                0.0487
     27 H52        -26.0485   9.7179   8.2611 H              1 <1>                0.0487
     28 H61        -26.8006   7.5045   8.9281 H              1 <1>                0.0575
     29 H62        -27.7709   7.3368   7.4505 H              1 <1>                0.0575
     30 H131       -31.5108  11.1933   5.8019 H              1 <1>                0.0724
     31 H132       -31.1124  12.2989   7.2610 H              1 <1>                0.0724
     32 H14        -31.1191  10.0200   8.5141 H              1 <1>                0.0640
     33 HO15       -33.3396  10.2316   8.9698 H              1 <1>                0.2100
     34 H161       -31.3446   8.4758   6.7979 H              1 <1>                0.0451
     35 H162       -32.4629   9.3691   5.9446 H              1 <1>                0.0451
     36 HN17       -33.2672   8.2447   8.4879 H              1 <1>                0.1225
     37 H191       -34.1319   5.0638   6.5555 H              1 <1>                0.0247
     38 H192       -34.7201   5.9816   7.9629 H              1 <1>                0.0247
     39 H193       -35.0758   6.5534   6.3152 H              1 <1>                0.0247
     40 H201       -32.3506   5.9897   5.0960 H              1 <1>                0.0247
     41 H202       -33.2741   7.4964   4.8819 H              1 <1>                0.0247
     42 H203       -31.6006   7.5568   5.4839 H              1 <1>                0.0247
     43 H211       -31.8277   5.1597   7.4473 H              1 <1>                0.0247
     44 H212       -31.0709   6.7279   7.8172 H              1 <1>                0.0247
     45 H213       -32.3725   6.0997   8.8561 H              1 <1>                0.0247
     46 ****       -24.9061   7.6558   7.5526 LP             1 <1>                0.0000
     47 ****       -25.6979   6.2419   7.3514 LP             1 <1>                0.0000
     48 ****       -25.6399  11.7498   5.1404 LP             1 <1>                0.0000
     49 ****       -29.7600  13.2481   5.8261 LP             1 <1>                0.0000
     50 ****       -29.5007  10.6799   7.8118 LP             1 <1>                0.0000
     51 ****       -29.7885   9.8586   6.4301 LP             1 <1>                0.0000
     52 ****       -33.5998  11.1998   7.7224 LP             1 <1>                0.0000
     53 ****       -32.6328  11.6673   8.9524 LP             1 <1>                0.0000
     54 ****       -34.1881   8.5748   7.1903 LP             1 <1>                0.0000
@<TRIPOS>BOND
    1    1    2 1     
    2    1    6 1     
    3    2    3 1     
    4    2   22 1     
    5    2   23 1     
    6    3    4 1     
    7    3   24 1     
    8    3   25 1     
    9    4    7 1     
   10    4    5 1     
   11    5    6 1     
   12    5   26 1     
   13    5   27 1     
   14    6   28 1     
   15    6   29 1     
   16    7    8 ar    
   17    7   11 ar    
   18    8    9 ar    
   19    9   10 ar    
   20   10   11 ar    
   21   11   12 1     
   22   12   13 1     
   23   13   14 1     
   24   13   30 1     
   25   13   31 1     
   26   14   15 1     
   27   14   16 1     
   28   14   32 1     
   29   15   33 1     
   30   16   17 1     
   31   16   34 1     
   32   16   35 1     
   33   17   18 1     
   34   17   36 1     
   35   18   19 1     
   36   18   20 1     
   37   18   21 1     
   38   19   37 1     
   39   19   38 1     
   40   19   39 1     
   41   20   40 1     
   42   20   41 1     
   43   20   42 1     
   44   21   43 1     
   45   21   44 1     
   46   21   45 1     
   47    1   46 1     
   48    1   47 1     
   49    8   48 1     
   50   10   49 1     
   51   12   50 1     
   52   12   51 1     
   53   15   52 1     
   54   15   53 1     
   55   17   54 1     
@<TRIPOS>SUBSTRUCTURE
      1 ****           1
@<TRIPOS>SET
LONE_PAIRS      STATIC     ATOMS    <user>   **** ""
9 46 47 48 49 50 51 52 53 54
DONOR_HYDROGENS      STATIC     ATOMS    <user>   **** ""
2 33 36
ATOM$BLUE        STATIC     ATOMS    COLORGROUP SYSTEM
9 46 47 48 49 50 51 52 53 54
ATOM$RED        STATIC     ATOMS    COLORGROUP SYSTEM
2 33 36
@<TRIPOS>COMMENT
> <Gold.Version>
5.5

> <Gold.Id.Protein>
unknown|dok_beta2|pdb

> <Gold.Protein.RotatedTorsions>
[ 4175 4166 4165 4163 ] final  -95.66 input -179.98 | X-H torsion
[ 1294 1290 1288 1285 ] final  144.42 input -179.99 | X-H torsion
[ 4033 4024 4023 4021 ] final -176.43 input  179.98 | X-H torsion
[ 1412 1408 1406 1403 ] final -114.10 input -179.99 | X-H torsion
[ 2830 2825 2824 2821 ] final  -64.74 input -179.98 | X-H torsion
[ 2723 2714 2713 2711 ] final  -29.51 input -179.98 | X-H torsion
[ 2773 2768 2767 2764 ] final    6.70 input  180.00 | X-H torsion

> <Gold.Protein.ActiveResidues>
 TRP109  THR110  ASP113  VAL114  VAL117  THR118  PHE193  TYR199  SER203  SER207 
 PHE208  TRP286  PHE289  PHE290  ASN293  TYR308  ASN312  TYR316 

> <Gold.Protein.RotatedAtoms>
  -34.3238    3.5925    1.2141 H   0  0  0  0  0  0  0  0  0  0  0  0  # atno 1294 bound_to 1290
  -26.5680   14.9882    2.4104 H   0  0  0  0  0  0  0  0  0  0  0  0  # atno 1412 bound_to 1408
  -25.9788    8.2673    1.5584 H   0  0  0  0  0  0  0  0  0  0  0  0  # atno 2723 bound_to 2714
  -23.7019   10.9322    3.0084 H   0  0  0  0  0  0  0  0  0  0  0  0  # atno 2773 bound_to 2768
  -24.3642   14.1267    2.0021 H   0  0  0  0  0  0  0  0  0  0  0  0  # atno 2830 bound_to 2825
  -27.9651    6.6574   11.5752 H   0  0  0  0  0  0  0  0  0  0  0  0  # atno 4033 bound_to 4024
  -36.2755    8.6435    8.4265 H   0  0  0  0  0  0  0  0  0  0  0  0  # atno 4175 bound_to 4166
  -36.7320    9.3469    7.0635 LP  0  0  0  0  0  0  0  0  0  0  0  0  # atno 4597 bound_to 4166
  -37.7708    8.4102    7.9062 LP  0  0  0  0  0  0  0  0  0  0  0  0  # atno 4598 bound_to 4166
  -35.4685    4.6132    1.6715 LP  0  0  0  0  0  0  0  0  0  0  0  0  # atno 4603 bound_to 1290
  -34.2011    4.2901    2.6493 LP  0  0  0  0  0  0  0  0  0  0  0  0  # atno 4604 bound_to 1290
  -29.3756    6.6250   10.8191 LP  0  0  0  0  0  0  0  0  0  0  0  0  # atno 4607 bound_to 4024
  -28.4034    5.3129   10.8252 LP  0  0  0  0  0  0  0  0  0  0  0  0  # atno 4608 bound_to 4024
  -27.9862   14.4970    1.8549 LP  0  0  0  0  0  0  0  0  0  0  0  0  # atno 4611 bound_to 1408
  -27.8431   15.0809    3.3732 LP  0  0  0  0  0  0  0  0  0  0  0  0  # atno 4612 bound_to 1408
  -24.8880   12.8804    2.8580 LP  0  0  0  0  0  0  0  0  0  0  0  0  # atno 4613 bound_to 2825
  -23.3012   13.2653    2.8317 LP  0  0  0  0  0  0  0  0  0  0  0  0  # atno 4614 bound_to 2825

> <Gold.Score>
     Score     S(PLP)   S(hbond)     S(cho)   S(metal)  DE(clash)   DE(tors)     intcor
     58.93     -55.93       1.00       0.00       0.00       0.00       0.00       0.00

> <Gold.PLP.Fitness>
58.9286

> <Gold.PLP.PLP>
-55.9286

> <Gold.PLP.part.hbond>
-3.7965

> <Gold.PLP.part.metal>
0.0000

> <Gold.PLP.part.buried>
-2.3680

> <Gold.PLP.part.nonpolar>
-51.1887

> <Gold.PLP.part.repulsive>
0.1682

> <Gold.PLP.ligand.clash>
0.0000

> <Gold.PLP.ligand.torsion>
0.0000

> <Gold.PLP.Chemscore.Hbond>
1.0000

> <Gold.PLP.Chemscore.CHOScore>
0.0000

> <Gold.PLP.Chemscore.Metal>
0.0000

> <Gold.Chemscore.Hbonds>
donor molecule, donor type, donor heavy atom, donor atom, acceptor molecule, acceptor atom, score
      L1  H    17    36       P1  4098  1.00

> <Gold.PLP.Chemscore.Internal.Correction>
0.0000

