#       Name:                C:\Users\porto\OneDrive\projekt\beta1\ligandy\L_3zpq.pdb L_3zpq.pdb 1
#       Creating user name   student
#       Creation time:       Mon Apr 08 15:19:53 2019


#       File generated by GOLD software.
#

@<TRIPOS>MOLECULE
C:\Users\porto\OneDrive\projekt\beta1\ligandy\L_3zpq.pdb L_3zpq.pdb 1|3zpq|mol2|1|dock1
    31    33     1
SMALL
GASTEIGER


@<TRIPOS>ATOM
      1 C1         -24.4827   3.5056  16.0974 C.ar           1 <1>               -0.0580
      2 C2         -24.0747   3.6370  14.7842 C.ar           1 <1>               -0.0400
      3 C3         -23.7571   4.8996  14.2922 C.ar           1 <1>                0.0390
      4 C4         -23.8695   5.9682  15.0932 C.ar           1 <1>                0.0207
      5 C5         -23.6550   7.2708  14.8790 C.ar           1 <1>               -0.0349
      6 C6         -23.9099   7.9342  16.0069 C.ar           1 <1>                0.0028
      7 N7         -24.2835   7.0438  16.9241 N.pl3          1 <1>               -0.3606
      8 C8         -24.2658   5.8370  16.3661 C.ar           1 <1>                0.0482
      9 C9         -24.5712   4.6471  16.8750 C.ar           1 <1>               -0.0377
     10 N10        -23.4060   5.0192  12.9966 N.pl3          1 <1>               -0.3270
     11 C11        -23.1319   3.7509  12.2464 C.3            1 <1>                0.0248
     12 C12        -23.1928   3.8208  10.7430 C.3            1 <1>                0.0117
     13 N13        -23.0739   5.2028  10.2321 N.3            1 <1>               -0.3130
     14 C14        -22.3198   6.0269  11.1793 C.3            1 <1>                0.0117
     15 C15        -23.1333   6.3314  12.3657 C.3            1 <1>                0.0248
     16 H1         -24.7231   2.5303  16.4934 H              1 <1>                0.0619
     17 H2         -24.0048   2.7656  14.1509 H              1 <1>                0.0636
     18 H5         -23.3289   7.6121  13.9071 H              1 <1>                0.0639
     19 H6         -23.7952   9.0072  16.0401 H              1 <1>                0.0807
     20 HN7        -24.5184   7.3489  17.8575 H              1 <1>                0.1653
     21 H9         -24.8903   4.5763  17.9047 H              1 <1>                0.0638
     22 H111       -23.8107   2.9738  12.5970 H              1 <1>                0.0476
     23 H112       -22.1609   3.3591  12.5484 H              1 <1>                0.0476
     24 H121       -24.1310   3.3869  10.3977 H              1 <1>                0.0439
     25 H122       -22.3965   3.2087  10.3194 H              1 <1>                0.0439
     26 HN13       -22.5924   5.1936   9.3441 H              1 <1>                0.1220
     27 H141       -22.0222   6.9569  10.6947 H              1 <1>                0.0439
     28 H142       -21.4176   5.4961  11.4839 H              1 <1>                0.0439
     29 H151       -22.5544   6.9492  13.0516 H              1 <1>                0.0476
     30 H152       -24.0733   6.7847  12.0525 H              1 <1>                0.0476
     31 ****       -23.9904   5.5865  10.1181 LP             1 <1>                0.0000
@<TRIPOS>BOND
    1    1    2 ar    
    2    1    9 ar    
    3    1   16 1     
    4    2    3 ar    
    5    2   17 1     
    6    3    4 ar    
    7    3   10 1     
    8    4    5 ar    
    9    4    8 ar    
   10    5    6 ar    
   11    5   18 1     
   12    6    7 ar    
   13    6   19 1     
   14    7    8 ar    
   15    7   20 1     
   16    8    9 ar    
   17    9   21 1     
   18   10   11 1     
   19   10   15 1     
   20   11   12 1     
   21   11   22 1     
   22   11   23 1     
   23   12   13 1     
   24   12   24 1     
   25   12   25 1     
   26   13   14 1     
   27   13   26 1     
   28   14   15 1     
   29   14   27 1     
   30   14   28 1     
   31   15   29 1     
   32   15   30 1     
   33   13   31 1     
@<TRIPOS>SUBSTRUCTURE
      1 ****           1
@<TRIPOS>SET
LONE_PAIRS      STATIC     ATOMS    <user>   **** ""
1 31
DONOR_HYDROGENS      STATIC     ATOMS    <user>   **** ""
2 20 26
ATOM$BLUE        STATIC     ATOMS    COLORGROUP SYSTEM
1 31
ATOM$RED        STATIC     ATOMS    COLORGROUP SYSTEM
2 20 26
@<TRIPOS>COMMENT
> <Gold.Version>
5.5

> <Gold.Id.Protein>
unknown|bialko_beta1|pdb

> <Gold.Protein.ActiveResidues>
 ALA86   ASP87   VAL90   VAL94   VAL95   GLY98   ALA99   LEU101  VAL102  CYS114 
 GLU115  TRP117  THR118  SER119  LEU120  ASP121  VAL122  CYS124  VAL125  THR126 
 SER128  SER173  PHE174  ILE177  CYS199  ASP200  PHE201  TYR207  SER215  PHE299 
 TRP303  PHE306  PHE307  ASN310  PHE325  VAL326  ASN329  TRP330  GLY332  TYR333 
 SER336 

> <Gold.Score>
     Score         DG    S(hbond)    S(metal)    S(lipo)     H(rot)  DE(clash)    DE(int)     intcor
     29.93     -30.65       0.97        0.00     187.46       0.00       0.00       0.71       0.78

> <Gold.Chemscore.Fitness>
29.9295

> <Gold.Chemscore.DG>
-30.6483

> <Gold.Chemscore.ZeroCoef>
-5.4800

> <Gold.Chemscore.Hbond>
0.9686

> <Gold.Chemscore.Metal>
0.0000

> <Gold.Chemscore.Lipo>
187.4619

> <Gold.Chemscore.Internal_Hbond>
0.0000

> <Gold.Chemscore.DEClash>
0.0045

> <Gold.Chemscore.DEInternal>
0.7142

> <Gold.Chemscore.Rot>
0.0000

> <Gold.Chemscore.Internal.Correction>
0.7818

> <Gold.Chemscore.Hbonds>
donor molecule, donor type, donor heavy atom, donor atom, acceptor molecule, acceptor atom, score
      L1  H     7    20       P1  2066  0.97

> <Gold.Chemscore.Hbond.Weighted>
-3.2352

> <Gold.Chemscore.Metal.Weighted>
-0.0000

> <Gold.Chemscore.Lipo.Weighted>
-21.9330

> <Gold.Chemscore.Internal_Hbond.Weighted>
0.0000

> <Gold.Chemscore.DEClash.Weighted>
0.0045

> <Gold.Chemscore.DEInternal.Weighted>
0.7142

> <Gold.Chemscore.Rot.Weighted>
0.0000

> <Gold.Chemscore.Internal.Correction.Weighted>
0.7818

