#       Name:                C:\Users\porto\OneDrive\projekt\beta2\ligandy\L_6mxt.pdb L_6mxt.pdb 1
#       Creating user name   student
#       Creation time:       Mon Apr 08 16:49:29 2019


#       File generated by GOLD software.
#

@<TRIPOS>MOLECULE
C:\Users\porto\OneDrive\projekt\beta2\ligandy\L_6mxt.pdb L_6mxt.pdb 1|6mxt|mol2|1|dock89
    76    77     1
SMALL
GASTEIGER


@<TRIPOS>ATOM
      1 CAD        -38.2798   6.6938   9.9346 C.ar           1 <1>               -0.0617
      2 CAE        -38.8724   5.6355   9.2552 C.ar           1 <1>               -0.0615
      3 CAF        -37.3352   6.4392  10.9202 C.ar           1 <1>               -0.0615
      4 CAG        -38.5165   4.3246   9.5609 C.ar           1 <1>               -0.0586
      5 CAH        -36.9800   5.1295  11.2269 C.ar           1 <1>               -0.0586
      6 CAI        -27.7208  12.7665   5.1032 C.ar           1 <1>               -0.0195
      7 CAJ        -28.9794  12.8173   5.6893 C.ar           1 <1>               -0.0526
      8 CAK        -28.6563  10.5858   6.5521 C.ar           1 <1>               -0.0472
      9 CAL        -33.0035   6.9650   6.4452 C.3            1 <1>               -0.0518
     10 CAM        -33.6233   5.6538   5.9529 C.3            1 <1>               -0.0509
     11 CAN        -32.1031   7.5551   5.3583 C.3            1 <1>               -0.0404
     12 CAO        -34.5228   5.0688   7.0447 C.3            1 <1>               -0.0295
     13 CAP        -34.9988   3.2693   9.7922 C.3            1 <1>               -0.0292
     14 CAQ        -35.6887   2.6744  11.0242 C.3            1 <1>               -0.0470
     15 CAR        -26.6002   9.4031   6.0940 C.3            1 <1>                0.0727
     16 CAS        -31.1555   8.6000   5.9587 C.3            1 <1>               -0.0040
     17 CAT        -34.9653   3.6704   6.6205 C.3            1 <1>                0.0477
     18 CAU        -35.3467   2.4431   8.5550 C.3            1 <1>                0.0477
     19 CAV        -37.2125   2.7634  10.8607 C.3            1 <1>               -0.0276
     20 CAW        -31.0419  10.4060   7.5800 C.3            1 <1>                0.0261
     21 CAZ        -37.5713   4.0699  10.5481 C.ar           1 <1>               -0.0474
     22 NAX        -31.9074   9.6614   6.6546 N.3            1 <1>               -0.3132
     23 OAA        -26.2041   8.9652   4.7924 O.3            1 <1>               -0.3903
     24 OAB        -25.7039  11.5372   4.6889 O.3            1 <1>               -0.5064
     25 OAC        -31.6804  12.0993   6.0040 O.3            1 <1>               -0.3859
     26 OAY        -34.4026   2.7099   7.5177 O.3            1 <1>               -0.3798
     27 CBA        -26.9415  11.6290   5.2455 C.ar           1 <1>                0.1222
     28 CBB        -29.4447  11.7276   6.4149 C.ar           1 <1>               -0.0174
     29 CBC        -27.3975  10.5328   5.9659 C.ar           1 <1>                0.0195
     30 CBD        -30.7036  11.7831   6.9952 C.3            1 <1>                0.0926
     31 HAD        -38.5521   7.7118   9.6980 H              1 <1>                0.0618
     32 HAE        -39.6090   5.8296   8.4898 H              1 <1>                0.0618
     33 HAF        -36.8743   7.2589  11.4505 H              1 <1>                0.0618
     34 HAG        -38.9748   3.5031   9.0307 H              1 <1>                0.0620
     35 HAH        -36.2439   4.9352  11.9931 H              1 <1>                0.0620
     36 HAI        -27.3486  13.6089   4.5383 H              1 <1>                0.0654
     37 HAJ        -29.5912  13.7006   5.5793 H              1 <1>                0.0622
     38 HAK        -29.0260   9.7415   7.1150 H              1 <1>                0.0626
     39 HAL1       -33.7963   7.6735   6.6842 H              1 <1>                0.0266
     40 HAL2       -32.4133   6.7739   7.3413 H              1 <1>                0.0266
     41 HAM1       -32.8303   4.9439   5.7161 H              1 <1>                0.0266
     42 HAM2       -34.2157   5.8460   5.0587 H              1 <1>                0.0266
     43 HAN1       -32.7197   8.0224   4.5905 H              1 <1>                0.0277
     44 HAN2       -31.5197   6.7574   4.8980 H              1 <1>                0.0277
     45 HAO1       -35.3991   5.7040   7.1717 H              1 <1>                0.0287
     46 HAO2       -33.9652   5.0056   7.9787 H              1 <1>                0.0287
     47 HAP1       -35.3341   4.2969   9.6488 H              1 <1>                0.0287
     48 HAP2       -33.9190   3.2619   9.9421 H              1 <1>                0.0287
     49 HAQ1       -35.3860   3.2280  11.9128 H              1 <1>                0.0269
     50 HAQ2       -35.3959   1.6305  11.1352 H              1 <1>                0.0269
     51 HAR1       -25.7141   9.6486   6.6793 H              1 <1>                0.0608
     52 HAR2       -27.1668   8.6126   6.5864 H              1 <1>                0.0608
     53 HAS1       -30.5538   9.0429   5.1645 H              1 <1>                0.0424
     54 HAS2       -30.4783   8.1149   6.6615 H              1 <1>                0.0424
     55 HAT1       -34.6147   3.4705   5.6083 H              1 <1>                0.0560
     56 HAT2       -36.0528   3.6066   6.6565 H              1 <1>                0.0560
     57 HAU1       -36.3471   2.7071   8.2123 H              1 <1>                0.0560
     58 HAU2       -35.3189   1.3832   8.8066 H              1 <1>                0.0560
     59 HAV1       -37.6955   2.4674  11.7915 H              1 <1>                0.0313
     60 HAV2       -37.5312   2.0976  10.0587 H              1 <1>                0.0313
     61 HAW1       -31.5541  10.5327   8.5338 H              1 <1>                0.0453
     62 HAW2       -30.1213   9.8460   7.7462 H              1 <1>                0.0453
     63 HNAX       -32.2850  10.3078   5.9761 H              1 <1>                0.1220
     64 HOAA       -26.8772   8.3840   4.4307 H              1 <1>                0.2098
     65 HOAB       -25.6538  12.1121   3.9224 H              1 <1>                0.2921
     66 HOAC       -32.4733  11.5814   6.1591 H              1 <1>                0.2103
     67 HBD        -30.7167  12.5351   7.7840 H              1 <1>                0.0656
     68 ****       -32.6429   9.2283   7.1758 LP             1 <1>                0.0000
     69 ****       -25.3370   8.4711   4.8567 LP             1 <1>                0.0000
     70 ****       -26.0921   9.7583   4.1938 LP             1 <1>                0.0000
     71 ****       -25.5339  10.5925   4.4086 LP             1 <1>                0.0000
     72 ****       -25.0158  11.8150   5.3592 LP             1 <1>                0.0000
     73 ****       -31.3159  11.8872   5.0973 LP             1 <1>                0.0000
     74 ****       -31.9032  13.0729   6.0544 LP             1 <1>                0.0000
     75 ****       -33.5602   3.0740   7.9151 LP             1 <1>                0.0000
     76 ****       -34.1996   1.8654   7.0223 LP             1 <1>                0.0000
@<TRIPOS>BOND
    1    1    3 ar    
    2    1    2 ar    
    3    1   31 1     
    4    2    4 ar    
    5    2   32 1     
    6    3    5 ar    
    7    3   33 1     
    8    4   21 ar    
    9    4   34 1     
   10    5   21 ar    
   11    5   35 1     
   12    6   27 ar    
   13    6    7 ar    
   14    6   36 1     
   15    7   28 ar    
   16    7   37 1     
   17    8   29 ar    
   18    8   28 ar    
   19    8   38 1     
   20    9   11 1     
   21    9   10 1     
   22    9   39 1     
   23    9   40 1     
   24   10   12 1     
   25   10   41 1     
   26   10   42 1     
   27   11   16 1     
   28   11   43 1     
   29   11   44 1     
   30   12   17 1     
   31   12   45 1     
   32   12   46 1     
   33   13   18 1     
   34   13   14 1     
   35   13   47 1     
   36   13   48 1     
   37   14   19 1     
   38   14   49 1     
   39   14   50 1     
   40   15   23 1     
   41   15   29 1     
   42   15   51 1     
   43   15   52 1     
   44   16   22 1     
   45   16   53 1     
   46   16   54 1     
   47   17   26 1     
   48   17   55 1     
   49   17   56 1     
   50   18   26 1     
   51   18   57 1     
   52   18   58 1     
   53   19   21 1     
   54   19   59 1     
   55   19   60 1     
   56   20   30 1     
   57   20   22 1     
   58   20   61 1     
   59   20   62 1     
   60   22   63 1     
   61   23   64 1     
   62   24   27 1     
   63   24   65 1     
   64   25   30 1     
   65   25   66 1     
   66   27   29 ar    
   67   28   30 1     
   68   30   67 1     
   69   22   68 1     
   70   23   69 1     
   71   23   70 1     
   72   24   71 1     
   73   24   72 1     
   74   25   73 1     
   75   25   74 1     
   76   26   75 1     
   77   26   76 1     
@<TRIPOS>SUBSTRUCTURE
      1 ****           1
@<TRIPOS>SET
LONE_PAIRS      STATIC     ATOMS    <user>   **** ""
9 68 69 70 71 72 73 74 75 76
DONOR_HYDROGENS      STATIC     ATOMS    <user>   **** ""
4 63 64 65 66
ATOM$BLUE        STATIC     ATOMS    COLORGROUP SYSTEM
9 68 69 70 71 72 73 74 75 76
ATOM$RED        STATIC     ATOMS    COLORGROUP SYSTEM
4 63 64 65 66
@<TRIPOS>COMMENT
> <Gold.Version>
5.5

> <Gold.Id.Protein>
unknown|dok_beta2|pdb

> <Gold.Protein.RotatedTorsions>
[ 4175 4166 4165 4163 ] final  134.05 input -179.98 | X-H torsion
[ 1294 1290 1288 1285 ] final  -60.93 input -179.99 | X-H torsion
[ 4033 4024 4023 4021 ] final  126.78 input  179.98 | X-H torsion
[ 1412 1408 1406 1403 ] final   12.35 input -179.99 | X-H torsion
[ 2830 2825 2824 2821 ] final   20.15 input -179.98 | X-H torsion
[ 2723 2714 2713 2711 ] final   -2.09 input -179.98 | X-H torsion
[ 2773 2768 2767 2764 ] final -135.29 input  180.00 | X-H torsion

> <Gold.Protein.ActiveResidues>
 TRP109  THR110  ASP113  VAL114  VAL117  THR118  PHE193  TYR199  SER203  SER207 
 PHE208  TRP286  PHE289  PHE290  ASN293  TYR308  ASN312  TYR316 

> <Gold.Protein.RotatedAtoms>
  -34.6545    4.6030    2.6238 H   0  0  0  0  0  0  0  0  0  0  0  0  # atno 1294 bound_to 1290
  -27.9180   15.0521    3.2960 H   0  0  0  0  0  0  0  0  0  0  0  0  # atno 1412 bound_to 1408
  -26.1261    7.9910    1.2650 H   0  0  0  0  0  0  0  0  0  0  0  0  # atno 2723 bound_to 2714
  -24.7109    9.6792    3.5909 H   0  0  0  0  0  0  0  0  0  0  0  0  # atno 2773 bound_to 2768
  -23.3284   13.7127    2.4982 H   0  0  0  0  0  0  0  0  0  0  0  0  # atno 2830 bound_to 2825
  -28.6925    7.0600   11.3517 H   0  0  0  0  0  0  0  0  0  0  0  0  # atno 4033 bound_to 4024
  -36.8969    9.3045    7.0581 H   0  0  0  0  0  0  0  0  0  0  0  0  # atno 4175 bound_to 4166
  -37.7067    8.3420    8.0474 LP  0  0  0  0  0  0  0  0  0  0  0  0  # atno 4597 bound_to 4166
  -36.1484    8.7261    8.3488 LP  0  0  0  0  0  0  0  0  0  0  0  0  # atno 4598 bound_to 4166
  -33.9616    3.5585    1.6287 LP  0  0  0  0  0  0  0  0  0  0  0  0  # atno 4603 bound_to 1290
  -35.3633    4.2917    1.2231 LP  0  0  0  0  0  0  0  0  0  0  0  0  # atno 4604 bound_to 1290
  -29.2384    5.7751   10.5687 LP  0  0  0  0  0  0  0  0  0  0  0  0  # atno 4607 bound_to 4024
  -27.7830    5.7435   11.3084 LP  0  0  0  0  0  0  0  0  0  0  0  0  # atno 4608 bound_to 4024
  -26.5251   15.0185    2.5086 LP  0  0  0  0  0  0  0  0  0  0  0  0  # atno 4611 bound_to 1408
  -27.8974   14.4928    1.7967 LP  0  0  0  0  0  0  0  0  0  0  0  0  # atno 4612 bound_to 1408
  -24.8636   13.8897    2.0833 LP  0  0  0  0  0  0  0  0  0  0  0  0  # atno 4613 bound_to 2825
  -24.4056   12.6876    3.0891 LP  0  0  0  0  0  0  0  0  0  0  0  0  # atno 4614 bound_to 2825

> <Gold.Score>
     Score     S(PLP)   S(hbond)     S(cho)   S(metal)  DE(clash)   DE(tors)     intcor
     96.05    -100.63       2.26       0.00       0.00       5.17       3.83       1.49

> <Gold.PLP.Fitness>
96.0529

> <Gold.PLP.PLP>
-100.6287

> <Gold.PLP.part.hbond>
-7.6855

> <Gold.PLP.part.metal>
0.0000

> <Gold.PLP.part.buried>
-8.4260

> <Gold.PLP.part.nonpolar>
-87.4983

> <Gold.PLP.part.repulsive>
0.1140

> <Gold.PLP.ligand.clash>
5.1729

> <Gold.PLP.ligand.torsion>
3.8295

> <Gold.PLP.Chemscore.Hbond>
2.2555

> <Gold.PLP.Chemscore.CHOScore>
0.0000

> <Gold.PLP.Chemscore.Metal>
0.0000

> <Gold.Chemscore.Hbonds>
donor molecule, donor type, donor heavy atom, donor atom, acceptor molecule, acceptor atom, score
      L1  H    22    63       P1  1334  0.17
      L1  H    24    65       P1  2825  0.11
      L1  H    25    66       P1  1334  0.98
      P1  H  2768  2773       L1    23  1.00

> <Gold.PLP.Chemscore.Internal.Correction>
1.4896

