#       Name:                C:\Users\porto\OneDrive\projekt\beta1\ligandy\L_2y02.pdb L_2y02.pdb 1
#       Creating user name   student
#       Creation time:       Wed Apr 10 10:07:55 2019


#       File generated by GOLD software.
#

@<TRIPOS>MOLECULE
C:\Users\porto\OneDrive\projekt\beta1\ligandy\L_2y02.pdb L_2y02.pdb 1|2y02|mol2|1|dock4
    60    62     1
SMALL
GASTEIGER


@<TRIPOS>ATOM
      1 C1         -24.2665  11.6664  17.9116 C.ar           1 <1>               -0.0471
      2 N1         -25.9704  12.0842  20.1215 N.am           1 <1>               -0.3192
      3 O1         -26.7932  13.8734  19.0448 O.2            1 <1>               -0.2679
      4 C2         -24.2043  10.8008  18.9976 C.ar           1 <1>                0.0078
      5 N2         -23.3793   7.1721  17.2097 N.3            1 <1>               -0.3104
      6 O2         -25.8967  10.3850  22.3318 O.3            1 <1>               -0.5047
      7 C3         -23.2799   9.6224  19.0763 C.ar           1 <1>               -0.0086
      8 O3         -23.7715   2.1564  11.2984 O.3            1 <1>               -0.4951
      9 C4         -23.3277   8.8176  20.2342 C.ar           1 <1>               -0.0519
     10 O4         -21.2985   8.4169  18.3993 O.3            1 <1>               -0.3859
     11 C5         -24.1843   9.0556  21.3056 C.ar           1 <1>               -0.0178
     12 C6         -25.0739  10.1317  21.2927 C.ar           1 <1>                0.1407
     13 C7         -25.1245  11.0496  20.1398 C.ar           1 <1>                0.0915
     14 C8         -25.1722  12.7242  17.9493 C.ar           1 <1>                0.0034
     15 C9         -26.0030  12.9093  19.0555 C.ar           1 <1>                0.2493
     16 C10        -22.3418   9.2983  17.9565 C.3            1 <1>                0.0932
     17 C11        -23.0927   8.5599  16.8508 C.3            1 <1>                0.0264
     18 C12        -23.6545   6.1670  16.1798 C.3            1 <1>                0.0089
     19 C13        -24.3736   4.9258  16.7190 C.3            1 <1>               -0.0494
     20 C14        -22.3672   5.7485  15.4696 C.3            1 <1>               -0.0125
     21 C15        -22.7386   4.8047  14.3498 C.ar           1 <1>               -0.0457
     22 C16        -22.4033   3.4585  14.4559 C.ar           1 <1>               -0.0551
     23 C17        -22.7513   2.5718  13.4381 C.ar           1 <1>               -0.0197
     24 C18        -23.4345   3.0347  12.3101 C.ar           1 <1>                0.1201
     25 C19        -23.7722   4.3876  12.2065 C.ar           1 <1>               -0.0197
     26 C20        -23.4212   5.2725  13.2212 C.ar           1 <1>               -0.0551
     27 C21        -23.9884   0.7657  11.5703 C.3            1 <1>                0.0788
     28 H1         -23.6201  11.5124  17.0607 H              1 <1>                0.0626
     29 HN1        -26.5849  12.2473  20.9061 H              1 <1>                0.1690
     30 HN2        -24.1749   7.2495  17.8265 H              1 <1>                0.1223
     31 HO2        -26.2700   9.5613  22.6529 H              1 <1>                0.2922
     32 H4         -22.6751   7.9617  20.3235 H              1 <1>                0.0622
     33 HO4        -20.6835   8.2603  17.6788 H              1 <1>                0.2103
     34 H5         -24.1683   8.4023  22.1659 H              1 <1>                0.0655
     35 H8         -25.2367  13.4101  17.1175 H              1 <1>                0.0672
     36 H10        -21.9070  10.2160  17.5600 H              1 <1>                0.0656
     37 H111       -24.0270   9.0793  16.6371 H              1 <1>                0.0453
     38 H112       -22.5034   8.5829  15.9343 H              1 <1>                0.0453
     39 H12        -24.3054   6.6271  15.4366 H              1 <1>                0.0461
     40 H131       -24.6262   4.2633  15.8912 H              1 <1>                0.0245
     41 H132       -23.7214   4.4022  17.4169 H              1 <1>                0.0245
     42 H133       -25.2862   5.2282  17.2324 H              1 <1>                0.0245
     43 H141       -21.7137   5.2356  16.1754 H              1 <1>                0.0328
     44 H142       -21.8790   6.6299  15.0543 H              1 <1>                0.0328
     45 H16        -21.8732   3.1006  15.3265 H              1 <1>                0.0621
     46 H17        -22.4928   1.5265  13.5213 H              1 <1>                0.0654
     47 H19        -24.3054   4.7463  11.3385 H              1 <1>                0.0654
     48 H20        -23.6749   6.3193  13.1389 H              1 <1>                0.0621
     49 H211       -24.6478   0.6616  12.4318 H              1 <1>                0.0660
     50 H212       -24.4482   0.2925  10.7026 H              1 <1>                0.0660
     51 H213       -23.0347   0.2833  11.7832 H              1 <1>                0.0660
     52 ****       -27.3990  14.0320  19.8244 LP             1 <1>                0.0000
     53 ****       -26.8212  14.4882  18.2566 LP             1 <1>                0.0000
     54 ****       -22.5272   6.8007  17.5786 LP             1 <1>                0.0000
     55 ****       -26.6339  10.9910  22.0330 LP             1 <1>                0.0000
     56 ****       -25.3801  10.8255  23.0661 LP             1 <1>                0.0000
     57 ****       -24.6173   2.5019  10.8918 LP             1 <1>                0.0000
     58 ****       -23.0344   2.2027  10.6243 LP             1 <1>                0.0000
     59 ****       -21.6981   7.5479  18.6911 LP             1 <1>                0.0000
     60 ****       -20.8128   8.8350  19.1670 LP             1 <1>                0.0000
@<TRIPOS>BOND
    1    1    4 ar    
    2    1   14 ar    
    3    1   28 1     
    4    2   13 ar    
    5    2   15 am    
    6    2   29 1     
    7    3   15 2     
    8    4    7 ar    
    9    4   13 ar    
   10    5   18 1     
   11    5   17 1     
   12    5   30 1     
   13    6   12 1     
   14    6   31 1     
   15    7   16 1     
   16    7    9 ar    
   17    8   27 1     
   18    8   24 1     
   19    9   11 ar    
   20    9   32 1     
   21   10   16 1     
   22   10   33 1     
   23   11   12 ar    
   24   11   34 1     
   25   12   13 ar    
   26   14   15 ar    
   27   14   35 1     
   28   16   17 1     
   29   16   36 1     
   30   17   37 1     
   31   17   38 1     
   32   18   19 1     
   33   18   20 1     
   34   18   39 1     
   35   19   40 1     
   36   19   41 1     
   37   19   42 1     
   38   20   21 1     
   39   20   43 1     
   40   20   44 1     
   41   21   22 ar    
   42   21   26 ar    
   43   22   23 ar    
   44   22   45 1     
   45   23   24 ar    
   46   23   46 1     
   47   24   25 ar    
   48   25   26 ar    
   49   25   47 1     
   50   26   48 1     
   51   27   49 1     
   52   27   50 1     
   53   27   51 1     
   54    3   52 1     
   55    3   53 1     
   56    5   54 1     
   57    6   55 1     
   58    6   56 1     
   59    8   57 1     
   60    8   58 1     
   61   10   59 1     
   62   10   60 1     
@<TRIPOS>SUBSTRUCTURE
      1 ****           1
@<TRIPOS>SET
LONE_PAIRS      STATIC     ATOMS    <user>   **** ""
9 52 53 54 55 56 57 58 59 60
DONOR_HYDROGENS      STATIC     ATOMS    <user>   **** ""
4 29 30 31 33
ATOM$BLUE        STATIC     ATOMS    COLORGROUP SYSTEM
9 52 53 54 55 56 57 58 59 60
ATOM$RED        STATIC     ATOMS    COLORGROUP SYSTEM
4 29 30 31 33
@<TRIPOS>COMMENT
> <Gold.Version>
5.6

> <Gold.Id.Protein>
unknown|bialko_beta1 1|pdb

> <Gold.Protein.ActiveResidues>
 ALA86   ASP87   VAL90   VAL94   VAL95   GLY98   ALA99   LEU101  VAL102  CYS114 
 GLU115  TRP117  THR118  SER119  LEU120  ASP121  VAL122  CYS124  VAL125  THR126 
 SER128  SER173  PHE174  ILE177  CYS199  ASP200  PHE201  TYR207  SER215  PHE299 
 TRP303  PHE306  PHE307  ASN310  PHE325  VAL326  ASN329  TRP330  GLY332  TYR333 
 SER336 

> <Gold.Score>
     Fitness  S(hb_ext) S(vdw_ext)  S(hb_int)    S(int)      intcor
     56.41       2.00      40.45       0.00      -1.21      -9.77

> <Gold.Goldscore.Fitness>
56.4099

> <Gold.Goldscore.Internal.Vdw>
-7.3056

> <Gold.Goldscore.Internal.Torsion>
-3.6710

> <Gold.Goldscore.External.Vdw>
40.4487

> <Gold.Goldscore.Internal.HBond>
0.0000

> <Gold.Goldscore.External.HBond>
2.0000

> <Gold.Goldscore.Internal.Correction>
-9.7696

> <Gold.Goldscore.Hbonds>
donor molecule, donor type, donor heavy atom, donor atom, acceptor molecule, acceptor atom, score
      L1  H     5    30       P1  2066  1.00

> <Gold.Goldscore.Internal.Vdw.Weighted>
-7.3056

> <Gold.Goldscore.Internal.Torsion.Weighted>
-3.6710

> <Gold.Goldscore.External.Vdw.Weighted>
55.6170

> <Gold.Goldscore.Internal.HBond.Weighted>
0.0000

> <Gold.Goldscore.External.HBond.Weighted>
2.0000

> <Gold.Goldscore.Internal.Correction.Weighted>
-9.7696

