#       Name:                C:\Users\porto\OneDrive\projekt\beta2\ligandy\L_4qkx.pdb L_4qkx.pdb 1
#       Creating user name   student
#       Creation time:       Wed Apr 10 11:45:12 2019


#       File generated by GOLD software.
#

@<TRIPOS>MOLECULE
C:\Users\porto\OneDrive\projekt\beta2\ligandy\L_4qkx.pdb L_4qkx.pdb 1|4qkx|mol2|1|dock90
    62    63     1
SMALL
GASTEIGER


@<TRIPOS>ATOM
      1 CAA        -36.8862   6.6309   9.2760 C.3            1 <1>                0.0790
      2 CAF        -27.3856  12.2214   5.5183 C.ar           1 <1>               -0.0162
      3 CAG        -32.0583   6.2043   8.4571 C.ar           1 <1>               -0.0548
      4 CAH        -28.6500  12.1262   6.0859 C.ar           1 <1>               -0.0524
      5 CAI        -32.4363   5.1499   9.2850 C.ar           1 <1>               -0.0160
      6 CAJ        -28.1424   9.9496   7.0014 C.ar           1 <1>               -0.0109
      7 CAK        -34.3796   6.7993   8.1817 C.ar           1 <1>               -0.0131
      8 CAL        -34.0844   1.5282  10.7214 C.3            1 <1>                0.0249
      9 CAM        -32.9756   9.3926   7.9172 C.3            1 <1>               -0.0000
     10 CAN        -33.3451   2.7962  10.2754 C.3            1 <1>                0.0985
     11 CAO        -32.7413   8.1246   7.0826 C.3            1 <1>               -0.0150
     12 CAP        -31.4397  10.8264   6.3382 C.3            1 <1>                0.0261
     13 CAT        -26.5052  11.1672   5.7001 C.ar           1 <1>                0.1582
     14 CAU        -26.8778  10.0448   6.4318 C.ar           1 <1>                0.1586
     15 CAV        -33.0365   7.0271   7.8964 C.ar           1 <1>               -0.0425
     16 CAW        -29.0300  10.9989   6.8082 C.ar           1 <1>               -0.0143
     17 CAX        -33.7800   4.9285   9.5524 C.ar           1 <1>                0.1619
     18 CAY        -34.7519   5.7578   9.0085 C.ar           1 <1>                0.1618
     19 CAZ        -30.3032  10.9596   7.3647 C.3            1 <1>                0.0927
     20 NAQ        -32.5813  10.6311   7.2311 N.3            1 <1>               -0.3129
     21 OAB        -25.2494  11.1805   5.1790 O.3            1 <1>               -0.5033
     22 OAC        -25.9501   9.0573   6.5584 O.3            1 <1>               -0.5033
     23 OAD        -30.5615  12.0813   8.2242 O.3            1 <1>               -0.3859
     24 OAR        -36.0483   5.4684   9.2976 O.3            1 <1>               -0.4914
     25 OAS        -34.2312   3.9169  10.3428 O.3            1 <1>               -0.4875
     26 SAE        -35.5973   1.2390   9.7380 S.3            1 <1>               -0.1749
     27 HAA1       -36.3608   7.4669   9.7372 H              1 <1>                0.0660
     28 HAA2       -37.1334   6.8827   8.2448 H              1 <1>                0.0660
     29 HAA3       -37.8030   6.4289   9.8298 H              1 <1>                0.0660
     30 HAF        -27.1116  13.1005   4.9530 H              1 <1>                0.0655
     31 HAG        -31.0134   6.3816   8.2515 H              1 <1>                0.0621
     32 HAH        -29.3557  12.9351   5.9698 H              1 <1>                0.0622
     33 HAI        -31.6848   4.5064   9.7179 H              1 <1>                0.0655
     34 HAJ        -28.4107   9.0759   7.5760 H              1 <1>                0.0659
     35 HAK        -35.1324   7.4432   7.7519 H              1 <1>                0.0658
     36 HAL1       -33.4205   0.6685  10.6268 H              1 <1>                0.0407
     37 HAL2       -34.3477   1.6143  11.7754 H              1 <1>                0.0407
     38 HAM1       -32.4314   9.3118   8.8589 H              1 <1>                0.0427
     39 HAM2       -34.0274   9.4527   8.1958 H              1 <1>                0.0427
     40 HAN1       -32.9950   2.6708   9.2511 H              1 <1>                0.0705
     41 HAN2       -32.4914   2.9686  10.9302 H              1 <1>                0.0705
     42 HAO1       -31.6957   8.0795   6.7778 H              1 <1>                0.0325
     43 HAO2       -33.4098   8.1276   6.2220 H              1 <1>                0.0325
     44 HAP1       -31.5566  11.7735   5.8122 H              1 <1>                0.0453
     45 HAP2       -31.2865   9.9202   5.7529 H              1 <1>                0.0453
     46 HAZ        -30.3431  10.0695   7.9919 H              1 <1>                0.0656
     47 HNAQ       -33.3300  10.9340   6.6245 H              1 <1>                0.1220
     48 HOAB       -24.7616  11.9257   5.5371 H              1 <1>                0.2923
     49 HOAC       -26.0824   8.5979   7.3909 H              1 <1>                0.2923
     50 HOAD       -29.8848  12.1277   8.9028 H              1 <1>                0.2103
     51 HSAE       -36.4048   2.2983   9.8404 H              1 <1>                0.1017
     52 ****       -32.3211  11.0964   8.0772 LP             1 <1>                0.0000
     53 ****       -25.3025  11.2642   4.1839 LP             1 <1>                0.0000
     54 ****       -24.7808  10.3299   5.4174 LP             1 <1>                0.0000
     55 ****       -25.0336   9.4569   6.5403 LP             1 <1>                0.0000
     56 ****       -26.0467   8.4104   5.8019 LP             1 <1>                0.0000
     57 ****       -31.4577  11.9720   8.6542 LP             1 <1>                0.0000
     58 ****       -30.5510  12.9235   7.6851 LP             1 <1>                0.0000
     59 ****       -36.3894   4.8142   8.6225 LP             1 <1>                0.0000
     60 ****       -36.0903   5.0592  10.2091 LP             1 <1>                0.0000
     61 ****       -34.2855   4.2372  11.2885 LP             1 <1>                0.0000
     62 ****       -35.1399   3.6372  10.0329 LP             1 <1>                0.0000
@<TRIPOS>BOND
    1    1   24 1     
    2    1   27 1     
    3    1   28 1     
    4    1   29 1     
    5    2    4 ar    
    6    2   13 ar    
    7    2   30 1     
    8    3    5 ar    
    9    3   15 ar    
   10    3   31 1     
   11    4   16 ar    
   12    4   32 1     
   13    5   17 ar    
   14    5   33 1     
   15    6   14 ar    
   16    6   16 ar    
   17    6   34 1     
   18    7   18 ar    
   19    7   15 ar    
   20    7   35 1     
   21    8   26 1     
   22    8   10 1     
   23    8   36 1     
   24    8   37 1     
   25    9   11 1     
   26    9   20 1     
   27    9   38 1     
   28    9   39 1     
   29   10   25 1     
   30   10   40 1     
   31   10   41 1     
   32   11   15 1     
   33   11   42 1     
   34   11   43 1     
   35   12   20 1     
   36   12   19 1     
   37   12   44 1     
   38   12   45 1     
   39   13   21 1     
   40   13   14 ar    
   41   14   22 1     
   42   16   19 1     
   43   17   25 1     
   44   17   18 ar    
   45   18   24 1     
   46   19   23 1     
   47   19   46 1     
   48   20   47 1     
   49   21   48 1     
   50   22   49 1     
   51   23   50 1     
   52   26   51 1     
   53   20   52 1     
   54   21   53 1     
   55   21   54 1     
   56   22   55 1     
   57   22   56 1     
   58   23   57 1     
   59   23   58 1     
   60   24   59 1     
   61   24   60 1     
   62   25   61 1     
   63   25   62 1     
@<TRIPOS>SUBSTRUCTURE
      1 ****           1
@<TRIPOS>SET
LONE_PAIRS      STATIC     ATOMS    <user>   **** ""
11 52 53 54 55 56 57 58 59 60 61 62
DONOR_HYDROGENS      STATIC     ATOMS    <user>   **** ""
4 47 48 49 50
ATOM$BLUE        STATIC     ATOMS    COLORGROUP SYSTEM
11 52 53 54 55 56 57 58 59 60 61 62
ATOM$RED        STATIC     ATOMS    COLORGROUP SYSTEM
4 47 48 49 50
@<TRIPOS>COMMENT
> <Gold.Version>
5.6

> <Gold.Id.Protein>
unknown|dok_beta2|pdb

> <Gold.Protein.RotatedTorsions>
[ 4175 4166 4165 4163 ] final  155.17 input -179.98 | X-H torsion
[ 1294 1290 1288 1285 ] final -171.42 input -179.99 | X-H torsion
[ 4033 4024 4023 4021 ] final   28.98 input  179.98 | X-H torsion
[ 1412 1408 1406 1403 ] final   17.50 input -179.99 | X-H torsion
[ 2830 2825 2824 2821 ] final  163.41 input -179.98 | X-H torsion
[ 2723 2714 2713 2711 ] final -122.24 input -179.98 | X-H torsion
[ 2773 2768 2767 2764 ] final  -83.65 input  180.00 | X-H torsion

> <Gold.Protein.ActiveResidues>
 TRP109  THR110  ASP113  VAL114  VAL117  THR118  PHE193  TYR199  SER203  SER207 
 PHE208  TRP286  PHE289  PHE290  ASN293  TYR308  ASN312  TYR316 

> <Gold.Protein.RotatedAtoms>
  -33.9282    3.6292    1.7664 H   0  0  0  0  0  0  0  0  0  0  0  0  # atno 1294 bound_to 1290
  -27.9843   15.0252    3.2576 H   0  0  0  0  0  0  0  0  0  0  0  0  # atno 1412 bound_to 1408
  -26.3210    8.1300    2.8152 H   0  0  0  0  0  0  0  0  0  0  0  0  # atno 2723 bound_to 2714
  -24.3906   10.3267    3.9062 H   0  0  0  0  0  0  0  0  0  0  0  0  # atno 2773 bound_to 2768
  -24.7253   12.8215    2.9476 H   0  0  0  0  0  0  0  0  0  0  0  0  # atno 2830 bound_to 2825
  -29.3603    6.1028   10.6450 H   0  0  0  0  0  0  0  0  0  0  0  0  # atno 4033 bound_to 4024
  -36.5873    9.3476    7.1688 H   0  0  0  0  0  0  0  0  0  0  0  0  # atno 4175 bound_to 4166
  -37.8084    8.4951    7.7547 LP  0  0  0  0  0  0  0  0  0  0  0  0  # atno 4597 bound_to 4166
  -36.3694    8.5281    8.5260 LP  0  0  0  0  0  0  0  0  0  0  0  0  # atno 4598 bound_to 4166
  -35.2870    4.1894    1.1330 LP  0  0  0  0  0  0  0  0  0  0  0  0  # atno 4603 bound_to 1290
  -34.7948    4.6757    2.6122 LP  0  0  0  0  0  0  0  0  0  0  0  0  # atno 4604 bound_to 1290
  -27.9606    5.4890   11.1205 LP  0  0  0  0  0  0  0  0  0  0  0  0  # atno 4607 bound_to 4024
  -28.3653    7.0266   11.4927 LP  0  0  0  0  0  0  0  0  0  0  0  0  # atno 4608 bound_to 4024
  -26.5308   15.0466    2.5883 LP  0  0  0  0  0  0  0  0  0  0  0  0  # atno 4611 bound_to 1408
  -27.8226   14.4927    1.7571 LP  0  0  0  0  0  0  0  0  0  0  0  0  # atno 4612 bound_to 1408
  -23.2586   13.4192    2.7201 LP  0  0  0  0  0  0  0  0  0  0  0  0  # atno 4613 bound_to 2825
  -24.5541   14.0871    1.9837 LP  0  0  0  0  0  0  0  0  0  0  0  0  # atno 4614 bound_to 2825

> <Gold.Score>
     Fitness  S(hb_ext) S(vdw_ext)  S(hb_int)    S(int)      intcor
     67.83       4.38      47.26       0.00      -1.53     -24.57

> <Gold.Goldscore.Fitness>
67.8314

> <Gold.Goldscore.Internal.Vdw>
-19.0401

> <Gold.Goldscore.Internal.Torsion>
-7.0563

> <Gold.Goldscore.External.Vdw>
47.2588

> <Gold.Goldscore.Internal.HBond>
0.0000

> <Gold.Goldscore.External.HBond>
4.3774

> <Gold.Goldscore.Internal.Correction>
-24.5696

> <Gold.Goldscore.Hbonds>
donor molecule, donor type, donor heavy atom, donor atom, acceptor molecule, acceptor atom, score
      P1  H  4097  4104       L1    20  0.02
      P1  H  2768  2773       L1    21  1.00
      L1  H    20    47       P1  1334  0.39

> <Gold.Goldscore.Internal.Vdw.Weighted>
-19.0401

> <Gold.Goldscore.Internal.Torsion.Weighted>
-7.0563

> <Gold.Goldscore.External.Vdw.Weighted>
64.9808

> <Gold.Goldscore.Internal.HBond.Weighted>
0.0000

> <Gold.Goldscore.External.HBond.Weighted>
4.3774

> <Gold.Goldscore.Internal.Correction.Weighted>
-24.5696

