#       Name:                C:\Users\porto\OneDrive\projekt\beta2\ligandy\L_2rh1.pdb L_2rh1.pdb 1
#       Creating user name   student
#       Creation time:       Mon Apr 08 15:08:52 2019


#       File generated by GOLD software.
#

@<TRIPOS>MOLECULE
C:\Users\porto\OneDrive\projekt\beta2\ligandy\L_2rh1.pdb L_2rh1.pdb 1|2rh1|mol2|1|dock3
    49    51     1
SMALL
GASTEIGER


@<TRIPOS>ATOM
      1 C1         -25.4478   7.2495   6.9946 C.ar           1 <1>               -0.0598
      2 C2         -24.8977   8.3239   6.3047 C.ar           1 <1>               -0.0378
      3 C3         -25.6550   9.4476   6.0704 C.ar           1 <1>                0.0476
      4 C4         -27.0277   9.4670   6.5628 C.ar           1 <1>                0.0109
      5 C5         -27.5580   8.3875   7.2462 C.ar           1 <1>               -0.0519
      6 C6         -26.7597   7.2791   7.4588 C.ar           1 <1>               -0.0611
      7 N7         -25.4336  10.6507   5.4401 N.pl3          1 <1>               -0.3540
      8 C8         -26.5697  11.4233   5.5041 C.ar           1 <1>                0.0510
      9 C9         -27.5824  10.6581   6.2221 C.ar           1 <1>                0.0490
     10 C10        -26.8969  12.6691   5.0568 C.ar           1 <1>               -0.0375
     11 C11        -28.1605  13.1874   5.2829 C.ar           1 <1>               -0.0563
     12 C12        -29.1218  12.4565   5.9668 C.ar           1 <1>               -0.0192
     13 C13        -28.8479  11.1717   6.4512 C.ar           1 <1>                0.1303
     14 O14        -29.7868  10.4510   7.1222 O.3            1 <1>               -0.4887
     15 C15        -30.9178  11.0152   7.7574 C.3            1 <1>                0.1166
     16 C16        -31.9453   9.9358   7.9891 C.3            1 <1>                0.1015
     17 O17        -33.2243  10.5366   8.1008 O.3            1 <1>               -0.3872
     18 C18        -31.9095   8.9287   6.8355 C.3            1 <1>                0.0254
     19 N19        -32.9737   7.9348   6.9343 N.3            1 <1>               -0.3112
     20 C20        -33.0361   6.8026   6.0268 C.3            1 <1>                0.0021
     21 C21        -32.8162   7.2949   4.5977 C.3            1 <1>               -0.0499
     22 C22        -34.3749   6.0780   6.1955 C.3            1 <1>               -0.0499
     23 H1         -24.8328   6.3781   7.1678 H              1 <1>                0.0618
     24 H2         -23.8776   8.2752   5.9541 H              1 <1>                0.0638
     25 H5         -28.5768   8.4218   7.6021 H              1 <1>                0.0624
     26 H6         -27.1631   6.4306   7.9911 H              1 <1>                0.0618
     27 HN7        -24.5343  10.8445   5.0224 H              1 <1>                0.1659
     28 H10        -26.1681  13.2598   4.5220 H              1 <1>                0.0638
     29 H11        -28.4109  14.1749   4.9247 H              1 <1>                0.0619
     30 H12        -30.1025  12.8773   6.1338 H              1 <1>                0.0654
     31 H151       -31.3429  11.7908   7.1202 H              1 <1>                0.0723
     32 H152       -30.6205  11.4442   8.7140 H              1 <1>                0.0723
     33 H16        -31.7136   9.4178   8.9198 H              1 <1>                0.0640
     34 HO17       -33.5103  10.8434   7.2379 H              1 <1>                0.2100
     35 H181       -30.9431   8.4248   6.8241 H              1 <1>                0.0450
     36 H182       -31.9965   9.4597   5.8873 H              1 <1>                0.0450
     37 HN19       -32.9449   7.5003   7.8451 H              1 <1>                0.1223
     38 H20        -32.2336   6.1103   6.2812 H              1 <1>                0.0455
     39 H211       -32.8613   6.4500   3.9108 H              1 <1>                0.0245
     40 H212       -33.5913   8.0157   4.3373 H              1 <1>                0.0245
     41 H213       -31.8381   7.7708   4.5226 H              1 <1>                0.0245
     42 H221       -34.4177   5.2288   5.5129 H              1 <1>                0.0245
     43 H222       -34.4696   5.7234   7.2222 H              1 <1>                0.0245
     44 H223       -35.1915   6.7650   5.9725 H              1 <1>                0.0245
     45 ****       -29.2904   9.9616   7.8391 LP             1 <1>                0.0000
     46 ****       -30.1482   9.7949   6.4596 LP             1 <1>                0.0000
     47 ****       -33.1744  11.3119   8.7305 LP             1 <1>                0.0000
     48 ****       -33.8785   9.8655   8.4496 LP             1 <1>                0.0000
     49 ****       -33.7561   8.5138   6.7048 LP             1 <1>                0.0000
@<TRIPOS>BOND
    1    1    6 ar    
    2    1    2 ar    
    3    1   23 1     
    4    2    3 ar    
    5    2   24 1     
    6    3    4 ar    
    7    3    7 ar    
    8    4    5 ar    
    9    4    9 ar    
   10    5    6 ar    
   11    5   25 1     
   12    6   26 1     
   13    7    8 ar    
   14    7   27 1     
   15    8    9 ar    
   16    8   10 ar    
   17    9   13 ar    
   18   10   11 ar    
   19   10   28 1     
   20   11   12 ar    
   21   11   29 1     
   22   12   13 ar    
   23   12   30 1     
   24   13   14 1     
   25   14   15 1     
   26   15   16 1     
   27   15   31 1     
   28   15   32 1     
   29   16   18 1     
   30   16   17 1     
   31   16   33 1     
   32   17   34 1     
   33   18   19 1     
   34   18   35 1     
   35   18   36 1     
   36   19   20 1     
   37   19   37 1     
   38   20   21 1     
   39   20   22 1     
   40   20   38 1     
   41   21   39 1     
   42   21   40 1     
   43   21   41 1     
   44   22   42 1     
   45   22   43 1     
   46   22   44 1     
   47   14   45 1     
   48   14   46 1     
   49   17   47 1     
   50   17   48 1     
   51   19   49 1     
@<TRIPOS>SUBSTRUCTURE
      1 ****           1
@<TRIPOS>SET
LONE_PAIRS      STATIC     ATOMS    <user>   **** ""
5 45 46 47 48 49
DONOR_HYDROGENS      STATIC     ATOMS    <user>   **** ""
3 27 34 37
ATOM$BLUE        STATIC     ATOMS    COLORGROUP SYSTEM
5 45 46 47 48 49
ATOM$RED        STATIC     ATOMS    COLORGROUP SYSTEM
3 27 34 37
@<TRIPOS>COMMENT
> <Gold.Version>
5.5

> <Gold.Id.Protein>
unknown|dok_beta2|pdb

> <Gold.Protein.RotatedTorsions>
[ 4175 4166 4165 4163 ] final  107.43 input -179.98 | X-H torsion
[ 1294 1290 1288 1285 ] final  -31.25 input -179.99 | X-H torsion
[ 4033 4024 4023 4021 ] final -143.37 input  179.98 | X-H torsion
[ 1412 1408 1406 1403 ] final  -99.46 input -179.99 | X-H torsion
[ 2830 2825 2824 2821 ] final -108.71 input -179.98 | X-H torsion
[ 2723 2714 2713 2711 ] final -117.64 input -179.98 | X-H torsion
[ 2773 2768 2767 2764 ] final  147.78 input  180.00 | X-H torsion

> <Gold.Protein.ActiveResidues>
 TRP109  THR110  ASP113  VAL114  VAL117  THR118  PHE193  TYR199  SER203  SER207 
 PHE208  TRP286  PHE289  PHE290  ASN293  TYR308  ASN312  TYR316 

> <Gold.Protein.RotatedAtoms>
  -35.0392    4.7465    2.4088 H   0  0  0  0  0  0  0  0  0  0  0  0  # atno 1294 bound_to 1290
  -26.5768   15.0660    2.6273 H   0  0  0  0  0  0  0  0  0  0  0  0  # atno 1412 bound_to 1408
  -26.2797    8.1760    2.7771 H   0  0  0  0  0  0  0  0  0  0  0  0  # atno 2723 bound_to 2714
  -24.4756    9.4971    2.5052 H   0  0  0  0  0  0  0  0  0  0  0  0  # atno 2773 bound_to 2768
  -24.9251   13.7860    2.1693 H   0  0  0  0  0  0  0  0  0  0  0  0  # atno 2830 bound_to 2825
  -27.7701    6.1868   11.4980 H   0  0  0  0  0  0  0  0  0  0  0  0  # atno 4033 bound_to 4024
  -37.2861    9.1562    7.0631 H   0  0  0  0  0  0  0  0  0  0  0  0  # atno 4175 bound_to 4166
  -37.4303    8.2375    8.3655 LP  0  0  0  0  0  0  0  0  0  0  0  0  # atno 4597 bound_to 4166
  -36.0190    8.9852    8.0254 LP  0  0  0  0  0  0  0  0  0  0  0  0  # atno 4598 bound_to 4166
  -33.8527    3.7282    2.0675 LP  0  0  0  0  0  0  0  0  0  0  0  0  # atno 4603 bound_to 1290
  -35.0713    3.9725    1.0083 LP  0  0  0  0  0  0  0  0  0  0  0  0  # atno 4604 bound_to 1290
  -29.0975    6.9879   11.0999 LP  0  0  0  0  0  0  0  0  0  0  0  0  # atno 4607 bound_to 4024
  -28.8846    5.4401   10.6248 LP  0  0  0  0  0  0  0  0  0  0  0  0  # atno 4608 bound_to 4024
  -27.7771   14.4940    1.7367 LP  0  0  0  0  0  0  0  0  0  0  0  0  # atno 4611 bound_to 1408
  -28.0431   15.0028    3.2654 LP  0  0  0  0  0  0  0  0  0  0  0  0  # atno 4612 bound_to 1408
  -24.2629   12.6810    3.1185 LP  0  0  0  0  0  0  0  0  0  0  0  0  # atno 4613 bound_to 2825
  -23.3416   13.8199    2.3968 LP  0  0  0  0  0  0  0  0  0  0  0  0  # atno 4614 bound_to 2825

> <Gold.Score>
     Score     S(PLP)   S(hbond)     S(cho)   S(metal)  DE(clash)   DE(tors)     intcor
     86.79     -82.23       1.99       0.00       0.00       0.00       0.74       0.06

> <Gold.PLP.Fitness>
86.7894

> <Gold.PLP.PLP>
-82.2346

> <Gold.PLP.part.hbond>
-3.6802

> <Gold.PLP.part.metal>
0.0000

> <Gold.PLP.part.buried>
-10.5057

> <Gold.PLP.part.nonpolar>
-69.7356

> <Gold.PLP.part.repulsive>
0.0815

> <Gold.PLP.ligand.clash>
0.0000

> <Gold.PLP.ligand.torsion>
0.7385

> <Gold.PLP.Chemscore.Hbond>
1.9920

> <Gold.PLP.Chemscore.CHOScore>
0.0000

> <Gold.PLP.Chemscore.Metal>
0.0000

> <Gold.Chemscore.Hbonds>
donor molecule, donor type, donor heavy atom, donor atom, acceptor molecule, acceptor atom, score
      L1  H    17    34       P1  1334  1.00
      P1  H  4097  4104       L1    17  0.99

> <Gold.PLP.Chemscore.Internal.Correction>
0.0558

