#       Name:                C:\Users\porto\OneDrive\projekt\beta2\ligandy\L_3d4s.pdb L_3d4s.pdb 1
#       Creating user name   student
#       Creation time:       Mon Apr 08 15:10:48 2019


#       File generated by GOLD software.
#

@<TRIPOS>MOLECULE
C:\Users\porto\OneDrive\projekt\beta2\ligandy\L_3d4s.pdb L_3d4s.pdb 1|3d4s|mol2|1|dock13
    54    55     1
SMALL
GASTEIGER


@<TRIPOS>ATOM
      1 O1         -25.8326   7.0873   6.9229 O.3            1 <1>               -0.3767
      2 C2         -27.0848   7.4260   7.5019 C.3            1 <1>                0.0634
      3 C3         -27.7822   8.6396   6.8616 C.3            1 <1>                0.0372
      4 N4         -26.8913   9.6677   6.3848 N.pl3          1 <1>               -0.3060
      5 C5         -25.5425   9.2989   6.0044 C.3            1 <1>                0.0372
      6 C6         -24.9595   8.2006   6.8962 C.3            1 <1>                0.0634
      7 C7         -27.3337  10.9252   6.0529 C.ar           1 <1>                0.1942
      8 N8         -26.4851  11.8490   5.5716 N.ar           1 <1>               -0.1717
      9 S9         -27.3048  13.2342   5.2545 S.2            1 <1>                0.1206
     10 N10        -28.8051  12.7640   5.7089 N.ar           1 <1>               -0.1530
     11 C11        -28.7399  11.5064   6.1197 C.ar           1 <1>                0.2652
     12 O12        -29.8264  10.8125   6.5956 O.3            1 <1>               -0.4710
     13 C13        -31.1005  11.5138   6.6908 C.3            1 <1>                0.1183
     14 C14        -31.7829  10.7071   7.8056 C.3            1 <1>                0.1016
     15 O15        -33.0517  11.1871   8.1435 O.3            1 <1>               -0.3872
     16 C16        -31.8388   9.2439   7.4057 C.3            1 <1>                0.0256
     17 N17        -33.0930   8.5328   7.5019 N.3            1 <1>               -0.3088
     18 C18        -32.8546   7.1568   6.9981 C.3            1 <1>                0.0108
     19 C19        -32.2895   7.1824   5.5857 C.3            1 <1>               -0.0473
     20 C20        -31.8288   6.4576   7.9269 C.3            1 <1>               -0.0473
     21 C21        -34.1837   6.3741   6.9967 C.3            1 <1>               -0.0473
     22 H21        -26.9525   7.6077   8.5684 H              1 <1>                0.0575
     23 H22        -27.7488   6.5631   7.4562 H              1 <1>                0.0575
     24 H31        -28.4824   9.0717   7.5769 H              1 <1>                0.0487
     25 H32        -28.4142   8.3009   6.0401 H              1 <1>                0.0487
     26 H51        -24.9009  10.1789   6.0472 H              1 <1>                0.0487
     27 H52        -25.5372   8.9639   4.9668 H              1 <1>                0.0487
     28 H61        -23.9896   7.8927   6.5055 H              1 <1>                0.0575
     29 H62        -24.8300   8.5853   7.9079 H              1 <1>                0.0575
     30 H131       -31.6533  11.3758   5.7612 H              1 <1>                0.0724
     31 H132       -30.9228  12.5301   7.0433 H              1 <1>                0.0724
     32 H14        -31.1564  10.7806   8.6951 H              1 <1>                0.0640
     33 HO15       -33.6444  11.0802   7.3960 H              1 <1>                0.2100
     34 H161       -31.0768   8.6954   7.9585 H              1 <1>                0.0451
     35 H162       -31.4462   9.1368   6.3948 H              1 <1>                0.0451
     36 HN17       -33.3958   8.5111   8.4648 H              1 <1>                0.1225
     37 H191       -32.1243   6.1614   5.2409 H              1 <1>                0.0247
     38 H192       -32.9956   7.6805   4.9207 H              1 <1>                0.0247
     39 H193       -31.3434   7.7240   5.5818 H              1 <1>                0.0247
     40 H201       -31.6444   5.4447   7.5682 H              1 <1>                0.0247
     41 H202       -30.8949   7.0194   7.9254 H              1 <1>                0.0247
     42 H203       -32.2256   6.4167   8.9416 H              1 <1>                0.0247
     43 H211       -34.0104   5.3639   6.6268 H              1 <1>                0.0247
     44 H212       -34.5791   6.3268   8.0117 H              1 <1>                0.0247
     45 H213       -34.9021   6.8784   6.3505 H              1 <1>                0.0247
     46 ****       -25.9823   6.7684   5.9870 LP             1 <1>                0.0000
     47 ****       -25.4122   6.3566   7.4608 LP             1 <1>                0.0000
     48 ****       -25.5048  11.7131   5.4286 LP             1 <1>                0.0000
     49 ****       -29.6297  13.3291   5.6811 LP             1 <1>                0.0000
     50 ****       -29.5948  10.4915   7.5140 LP             1 <1>                0.0000
     51 ****       -29.9643  10.0267   5.9928 LP             1 <1>                0.0000
     52 ****       -32.9886  12.1561   8.3827 LP             1 <1>                0.0000
     53 ****       -33.4052  10.6732   8.9251 LP             1 <1>                0.0000
     54 ****       -33.8077   8.9804   6.9645 LP             1 <1>                0.0000
@<TRIPOS>BOND
    1    1    2 1     
    2    1    6 1     
    3    2    3 1     
    4    2   22 1     
    5    2   23 1     
    6    3    4 1     
    7    3   24 1     
    8    3   25 1     
    9    4    7 1     
   10    4    5 1     
   11    5    6 1     
   12    5   26 1     
   13    5   27 1     
   14    6   28 1     
   15    6   29 1     
   16    7    8 ar    
   17    7   11 ar    
   18    8    9 ar    
   19    9   10 ar    
   20   10   11 ar    
   21   11   12 1     
   22   12   13 1     
   23   13   14 1     
   24   13   30 1     
   25   13   31 1     
   26   14   15 1     
   27   14   16 1     
   28   14   32 1     
   29   15   33 1     
   30   16   17 1     
   31   16   34 1     
   32   16   35 1     
   33   17   18 1     
   34   17   36 1     
   35   18   19 1     
   36   18   20 1     
   37   18   21 1     
   38   19   37 1     
   39   19   38 1     
   40   19   39 1     
   41   20   40 1     
   42   20   41 1     
   43   20   42 1     
   44   21   43 1     
   45   21   44 1     
   46   21   45 1     
   47    1   46 1     
   48    1   47 1     
   49    8   48 1     
   50   10   49 1     
   51   12   50 1     
   52   12   51 1     
   53   15   52 1     
   54   15   53 1     
   55   17   54 1     
@<TRIPOS>SUBSTRUCTURE
      1 ****           1
@<TRIPOS>SET
LONE_PAIRS      STATIC     ATOMS    <user>   **** ""
9 46 47 48 49 50 51 52 53 54
DONOR_HYDROGENS      STATIC     ATOMS    <user>   **** ""
2 33 36
ATOM$BLUE        STATIC     ATOMS    COLORGROUP SYSTEM
9 46 47 48 49 50 51 52 53 54
ATOM$RED        STATIC     ATOMS    COLORGROUP SYSTEM
2 33 36
@<TRIPOS>COMMENT
> <Gold.Version>
5.5

> <Gold.Id.Protein>
unknown|dok_beta2|pdb

> <Gold.Protein.RotatedTorsions>
[ 4175 4166 4165 4163 ] final    1.32 input -179.98 | X-H torsion
[ 1294 1290 1288 1285 ] final  -59.98 input -179.99 | X-H torsion
[ 4033 4024 4023 4021 ] final  123.19 input  179.98 | X-H torsion
[ 1412 1408 1406 1403 ] final  -12.62 input -179.99 | X-H torsion
[ 2830 2825 2824 2821 ] final  131.02 input -179.98 | X-H torsion
[ 2723 2714 2713 2711 ] final -125.35 input -179.98 | X-H torsion
[ 2773 2768 2767 2764 ] final -113.27 input  180.00 | X-H torsion

> <Gold.Protein.ActiveResidues>
 TRP109  THR110  ASP113  VAL114  VAL117  THR118  PHE193  TYR199  SER203  SER207 
 PHE208  TRP286  PHE289  PHE290  ASN293  TYR308  ASN312  TYR316 

> <Gold.Protein.RotatedAtoms>
  -34.6674    4.6097    2.6200 H   0  0  0  0  0  0  0  0  0  0  0  0  # atno 1294 bound_to 1290
  -27.5536   15.1576    3.3920 H   0  0  0  0  0  0  0  0  0  0  0  0  # atno 1412 bound_to 1408
  -26.3495    8.0973    2.8381 H   0  0  0  0  0  0  0  0  0  0  0  0  # atno 2723 bound_to 2714
  -24.6129    9.9346    3.8021 H   0  0  0  0  0  0  0  0  0  0  0  0  # atno 2773 bound_to 2768
  -24.2573   12.7194    3.1062 H   0  0  0  0  0  0  0  0  0  0  0  0  # atno 2830 bound_to 2825
  -28.7429    7.0594   11.3255 H   0  0  0  0  0  0  0  0  0  0  0  0  # atno 4033 bound_to 4024
  -37.5689    8.3090    8.2005 H   0  0  0  0  0  0  0  0  0  0  0  0  # atno 4175 bound_to 4166
  -36.0635    8.8518    8.2045 LP  0  0  0  0  0  0  0  0  0  0  0  0  # atno 4597 bound_to 4166
  -37.0910    9.2541    7.0008 LP  0  0  0  0  0  0  0  0  0  0  0  0  # atno 4598 bound_to 4166
  -33.9550    3.5617    1.6425 LP  0  0  0  0  0  0  0  0  0  0  0  0  # atno 4603 bound_to 1290
  -35.3565    4.2815    1.2132 LP  0  0  0  0  0  0  0  0  0  0  0  0  # atno 4604 bound_to 1290
  -29.2042    5.7268   10.5681 LP  0  0  0  0  0  0  0  0  0  0  0  0  # atno 4607 bound_to 4024
  -27.7647    5.7924   11.3363 LP  0  0  0  0  0  0  0  0  0  0  0  0  # atno 4608 bound_to 4024
  -26.6027   14.8677    2.1379 LP  0  0  0  0  0  0  0  0  0  0  0  0  # atno 4611 bound_to 1408
  -28.1996   14.5336    2.0674 LP  0  0  0  0  0  0  0  0  0  0  0  0  # atno 4612 bound_to 1408
  -23.3436   13.8231    2.3940 LP  0  0  0  0  0  0  0  0  0  0  0  0  # atno 4613 bound_to 2825
  -24.9571   13.7897    2.1445 LP  0  0  0  0  0  0  0  0  0  0  0  0  # atno 4614 bound_to 2825

> <Gold.Score>
     Score     S(PLP)   S(hbond)     S(cho)   S(metal)  DE(clash)   DE(tors)     intcor
     73.79     -66.54       2.98       0.00       0.00       0.00       0.91       0.13

> <Gold.PLP.Fitness>
73.7906

> <Gold.PLP.PLP>
-66.5384

> <Gold.PLP.part.hbond>
-3.5613

> <Gold.PLP.part.metal>
0.0000

> <Gold.PLP.part.buried>
-10.1751

> <Gold.PLP.part.nonpolar>
-54.7042

> <Gold.PLP.part.repulsive>
0.1550

> <Gold.PLP.ligand.clash>
0.0000

> <Gold.PLP.ligand.torsion>
0.9147

> <Gold.PLP.Chemscore.Hbond>
2.9833

> <Gold.PLP.Chemscore.CHOScore>
0.0000

> <Gold.PLP.Chemscore.Metal>
0.0000

> <Gold.Chemscore.Hbonds>
donor molecule, donor type, donor heavy atom, donor atom, acceptor molecule, acceptor atom, score
      L1  H    15    33       P1  1334  1.00
      L1  H    17    36       P1  4098  1.00
      P1  H  4097  4104       L1    15  0.98

> <Gold.PLP.Chemscore.Internal.Correction>
0.1316

