#       Name:                C:\Users\porto\OneDrive\projekt\beta2\ligandy\L_6mxt.pdb L_6mxt.pdb 1
#       Creating user name   student
#       Creation time:       Mon Apr 08 16:33:58 2019


#       File generated by GOLD software.
#

@<TRIPOS>MOLECULE
C:\Users\porto\OneDrive\projekt\beta2\ligandy\L_6mxt.pdb L_6mxt.pdb 1|6mxt|mol2|1|dock2
    76    77     1
SMALL
GASTEIGER


@<TRIPOS>ATOM
      1 CAD        -39.2288   5.3464   9.9047 C.ar           1 <1>               -0.0617
      2 CAE        -38.9362   4.4083  10.8880 C.ar           1 <1>               -0.0615
      3 CAF        -38.3364   6.3789   9.6478 C.ar           1 <1>               -0.0615
      4 CAG        -37.7497   4.5030  11.6103 C.ar           1 <1>               -0.0586
      5 CAH        -37.1512   6.4747  10.3701 C.ar           1 <1>               -0.0586
      6 CAI        -27.3863  11.9358   5.4284 C.ar           1 <1>               -0.0195
      7 CAJ        -28.6581  12.3255   5.8295 C.ar           1 <1>               -0.0526
      8 CAK        -28.8309  10.3331   7.1819 C.ar           1 <1>               -0.0472
      9 CAL        -32.1101   6.6013   5.9974 C.3            1 <1>               -0.0518
     10 CAM        -33.1585   5.6350   5.4381 C.3            1 <1>               -0.0509
     11 CAN        -32.6153   8.0406   5.8823 C.3            1 <1>               -0.0404
     12 CAO        -34.3785   5.6092   6.3623 C.3            1 <1>               -0.0295
     13 CAP        -33.9260   4.5583  10.6287 C.3            1 <1>               -0.0292
     14 CAQ        -34.5051   5.8940  11.1066 C.3            1 <1>               -0.0470
     15 CAR        -27.0005   8.7578   7.2453 C.3            1 <1>                0.0727
     16 CAS        -31.5834   9.0168   6.4590 C.3            1 <1>               -0.0040
     17 CAT        -33.9534   5.0621   7.7229 C.3            1 <1>                0.0477
     18 CAU        -34.8363   3.9519   9.5619 C.3            1 <1>                0.0477
     19 CAV        -35.6708   5.6397  12.0724 C.3            1 <1>               -0.0276
     20 CAW        -31.2370  10.8424   8.0242 C.3            1 <1>                0.0261
     21 CAZ        -36.8566   5.5371  11.3536 C.ar           1 <1>               -0.0474
     22 NAX        -32.2327  10.0417   7.2982 N.3            1 <1>               -0.3132
     23 OAA        -27.5559   8.4539   8.5268 O.3            1 <1>               -0.3903
     24 OAB        -25.6067  10.3323   5.5394 O.3            1 <1>               -0.5064
     25 OAC        -31.4952  12.0374   5.9593 O.3            1 <1>               -0.3859
     26 OAY        -35.1092   4.9248   8.5533 O.3            1 <1>               -0.3798
     27 CBA        -26.8478  10.7510   5.9057 C.ar           1 <1>                0.1222
     28 CBB        -29.3780  11.5246   6.7075 C.ar           1 <1>               -0.0174
     29 CBC        -27.5593   9.9412   6.7813 C.ar           1 <1>                0.0195
     30 CBD        -30.6486  11.9176   7.1019 C.3            1 <1>                0.0926
     31 HAD        -40.1474   5.2742   9.3410 H              1 <1>                0.0618
     32 HAE        -39.6290   3.6054  11.0921 H              1 <1>                0.0618
     33 HAF        -38.5615   7.1097   8.8858 H              1 <1>                0.0618
     34 HAG        -37.5214   3.7723  12.3719 H              1 <1>                0.0620
     35 HAH        -36.4586   7.2783  10.1667 H              1 <1>                0.0620
     36 HAI        -26.8173  12.5519   4.7474 H              1 <1>                0.0654
     37 HAJ        -29.0828  13.2467   5.4586 H              1 <1>                0.0622
     38 HAK        -29.3977   9.7143   7.8618 H              1 <1>                0.0626
     39 HAL1       -31.9216   6.3652   7.0445 H              1 <1>                0.0266
     40 HAL2       -31.1824   6.4961   5.4350 H              1 <1>                0.0266
     41 HAM1       -32.7311   4.6340   5.3722 H              1 <1>                0.0266
     42 HAM2       -33.4622   5.9647   4.4449 H              1 <1>                0.0266
     43 HAN1       -33.5539   8.1403   6.4272 H              1 <1>                0.0277
     44 HAN2       -32.7949   8.2792   4.8338 H              1 <1>                0.0277
     45 HAO1       -35.1443   4.9628   5.9343 H              1 <1>                0.0287
     46 HAO2       -34.7642   6.6212   6.4822 H              1 <1>                0.0287
     47 HAP1       -32.9333   4.7223  10.2085 H              1 <1>                0.0287
     48 HAP2       -33.8495   3.8731  11.4731 H              1 <1>                0.0287
     49 HAQ1       -34.8621   6.4630  10.2484 H              1 <1>                0.0269
     50 HAQ2       -33.7288   6.4641  11.6167 H              1 <1>                0.0269
     51 HAR1       -27.2302   7.9505   6.5498 H              1 <1>                0.0608
     52 HAR2       -25.9207   8.8773   7.3366 H              1 <1>                0.0608
     53 HAS1       -31.0477   9.5023   5.6428 H              1 <1>                0.0424
     54 HAS2       -30.8567   8.4660   7.0563 H              1 <1>                0.0424
     55 HAT1       -33.2519   5.7537   8.1888 H              1 <1>                0.0560
     56 HAT2       -33.4831   4.0876   7.5921 H              1 <1>                0.0560
     57 HAU1       -35.7717   3.6334  10.0219 H              1 <1>                0.0560
     58 HAU2       -34.3437   3.0907   9.1111 H              1 <1>                0.0560
     59 HAV1       -35.7448   6.4667  12.7780 H              1 <1>                0.0313
     60 HAV2       -35.4952   4.7122  12.6174 H              1 <1>                0.0313
     61 HAW1       -31.7104  11.3197   8.8822 H              1 <1>                0.0453
     62 HAW2       -30.4373  10.1921   8.3799 H              1 <1>                0.0453
     63 HNAX       -32.7790  10.6592   6.7143 H              1 <1>                0.1220
     64 HOAA       -28.4445   8.1075   8.4174 H              1 <1>                0.2098
     65 HOAB       -25.0039  10.4305   6.2794 H              1 <1>                0.2921
     66 HOAC       -32.3717  11.7111   6.1745 H              1 <1>                0.2103
     67 HBD        -30.5966  12.8706   7.6282 H              1 <1>                0.0656
     68 ****       -32.8179   9.5736   7.9603 LP             1 <1>                0.0000
     69 ****       -27.5884   9.2853   9.0814 LP             1 <1>                0.0000
     70 ****       -26.9859   7.7707   8.9833 LP             1 <1>                0.0000
     71 ****       -25.2827  10.8833   4.7704 LP             1 <1>                0.0000
     72 ****       -25.6463   9.3709   5.2672 LP             1 <1>                0.0000
     73 ****       -31.1157  11.5008   5.2056 LP             1 <1>                0.0000
     74 ****       -31.5546  12.9980   5.6878 LP             1 <1>                0.0000
     75 ****       -35.8872   4.6267   8.0002 LP             1 <1>                0.0000
     76 ****       -35.3217   5.8030   8.9817 LP             1 <1>                0.0000
@<TRIPOS>BOND
    1    1    3 ar    
    2    1    2 ar    
    3    1   31 1     
    4    2    4 ar    
    5    2   32 1     
    6    3    5 ar    
    7    3   33 1     
    8    4   21 ar    
    9    4   34 1     
   10    5   21 ar    
   11    5   35 1     
   12    6   27 ar    
   13    6    7 ar    
   14    6   36 1     
   15    7   28 ar    
   16    7   37 1     
   17    8   29 ar    
   18    8   28 ar    
   19    8   38 1     
   20    9   11 1     
   21    9   10 1     
   22    9   39 1     
   23    9   40 1     
   24   10   12 1     
   25   10   41 1     
   26   10   42 1     
   27   11   16 1     
   28   11   43 1     
   29   11   44 1     
   30   12   17 1     
   31   12   45 1     
   32   12   46 1     
   33   13   18 1     
   34   13   14 1     
   35   13   47 1     
   36   13   48 1     
   37   14   19 1     
   38   14   49 1     
   39   14   50 1     
   40   15   23 1     
   41   15   29 1     
   42   15   51 1     
   43   15   52 1     
   44   16   22 1     
   45   16   53 1     
   46   16   54 1     
   47   17   26 1     
   48   17   55 1     
   49   17   56 1     
   50   18   26 1     
   51   18   57 1     
   52   18   58 1     
   53   19   21 1     
   54   19   59 1     
   55   19   60 1     
   56   20   30 1     
   57   20   22 1     
   58   20   61 1     
   59   20   62 1     
   60   22   63 1     
   61   23   64 1     
   62   24   27 1     
   63   24   65 1     
   64   25   30 1     
   65   25   66 1     
   66   27   29 ar    
   67   28   30 1     
   68   30   67 1     
   69   22   68 1     
   70   23   69 1     
   71   23   70 1     
   72   24   71 1     
   73   24   72 1     
   74   25   73 1     
   75   25   74 1     
   76   26   75 1     
   77   26   76 1     
@<TRIPOS>SUBSTRUCTURE
      1 ****           1
@<TRIPOS>SET
LONE_PAIRS      STATIC     ATOMS    <user>   **** ""
9 68 69 70 71 72 73 74 75 76
DONOR_HYDROGENS      STATIC     ATOMS    <user>   **** ""
4 63 64 65 66
ATOM$BLUE        STATIC     ATOMS    COLORGROUP SYSTEM
9 68 69 70 71 72 73 74 75 76
ATOM$RED        STATIC     ATOMS    COLORGROUP SYSTEM
4 63 64 65 66
@<TRIPOS>COMMENT
> <Gold.Version>
5.5

> <Gold.Id.Protein>
unknown|dok_beta2|pdb

> <Gold.Protein.RotatedTorsions>
[ 4175 4166 4165 4163 ] final  145.97 input -179.98 | X-H torsion
[ 1294 1290 1288 1285 ] final    9.66 input -179.99 | X-H torsion
[ 4033 4024 4023 4021 ] final  109.22 input  179.98 | X-H torsion
[ 1412 1408 1406 1403 ] final   73.24 input -179.99 | X-H torsion
[ 2830 2825 2824 2821 ] final -159.97 input -179.98 | X-H torsion
[ 2723 2714 2713 2711 ] final  -70.17 input -179.98 | X-H torsion
[ 2773 2768 2767 2764 ] final -112.37 input  180.00 | X-H torsion

> <Gold.Protein.ActiveResidues>
 TRP109  THR110  ASP113  VAL114  VAL117  THR118  PHE193  TYR199  SER203  SER207 
 PHE208  TRP286  PHE289  PHE290  ASN293  TYR308  ASN312  TYR316 

> <Gold.Protein.RotatedAtoms>
  -35.3877    4.6928    1.8836 H   0  0  0  0  0  0  0  0  0  0  0  0  # atno 1294 bound_to 1290
  -28.3446   14.7015    2.5639 H   0  0  0  0  0  0  0  0  0  0  0  0  # atno 1412 bound_to 1408
  -25.9755    8.4297    2.1657 H   0  0  0  0  0  0  0  0  0  0  0  0  # atno 2723 bound_to 2714
  -24.6075    9.9460    3.8085 H   0  0  0  0  0  0  0  0  0  0  0  0  # atno 2773 bound_to 2768
  -25.0473   13.1640    2.6284 H   0  0  0  0  0  0  0  0  0  0  0  0  # atno 2830 bound_to 2825
  -28.9307    7.0252   11.2156 H   0  0  0  0  0  0  0  0  0  0  0  0  # atno 4033 bound_to 4024
  -36.7191    9.3377    7.1088 H   0  0  0  0  0  0  0  0  0  0  0  0  # atno 4175 bound_to 4166
  -37.7783    8.4221    7.8838 LP  0  0  0  0  0  0  0  0  0  0  0  0  # atno 4597 bound_to 4166
  -36.2620    8.6115    8.4596 LP  0  0  0  0  0  0  0  0  0  0  0  0  # atno 4598 bound_to 4166
  -34.0467    4.1305    2.5521 LP  0  0  0  0  0  0  0  0  0  0  0  0  # atno 4603 bound_to 1290
  -34.5141    3.6262    1.0710 LP  0  0  0  0  0  0  0  0  0  0  0  0  # atno 4604 bound_to 1290
  -29.0489    5.5588   10.5848 LP  0  0  0  0  0  0  0  0  0  0  0  0  # atno 4607 bound_to 4024
  -27.7244    5.9959   11.4341 LP  0  0  0  0  0  0  0  0  0  0  0  0  # atno 4608 bound_to 4024
  -27.0203   15.2137    3.3021 LP  0  0  0  0  0  0  0  0  0  0  0  0  # atno 4611 bound_to 1408
  -26.9577   14.6630    1.7661 LP  0  0  0  0  0  0  0  0  0  0  0  0  # atno 4612 bound_to 1408
  -23.5078   12.9741    3.0211 LP  0  0  0  0  0  0  0  0  0  0  0  0  # atno 4613 bound_to 2825
  -23.9693   14.1752    2.0155 LP  0  0  0  0  0  0  0  0  0  0  0  0  # atno 4614 bound_to 2825

> <Gold.Score>
     Score         DG    S(hbond)    S(metal)    S(lipo)     H(rot)  DE(clash)    DE(int)     intcor
     42.91     -46.85       3.00        0.00     369.74       4.65       1.76       2.18       0.63

> <Gold.Chemscore.Fitness>
42.9133

> <Gold.Chemscore.DG>
-46.8491

> <Gold.Chemscore.ZeroCoef>
-5.4800

> <Gold.Chemscore.Hbond>
2.9975

> <Gold.Chemscore.Metal>
0.0000

> <Gold.Chemscore.Lipo>
369.7431

> <Gold.Chemscore.Internal_Hbond>
0.0000

> <Gold.Chemscore.DEClash>
1.7557

> <Gold.Chemscore.DEInternal>
2.1801

> <Gold.Chemscore.Rot>
4.6494

> <Gold.Chemscore.Internal.Correction>
0.6251

> <Gold.Chemscore.Hbonds>
donor molecule, donor type, donor heavy atom, donor atom, acceptor molecule, acceptor atom, score
      L1  H    22    63       P1  1334  0.80
      L1  H    25    66       P1  1334  0.81
      P1  H  3760  3767       L1    23  0.59
      P1  H  2768  2773       L1    24  0.80

> <Gold.Chemscore.Hbond.Weighted>
-10.0118

> <Gold.Chemscore.Metal.Weighted>
-0.0000

> <Gold.Chemscore.Lipo.Weighted>
-43.2599

> <Gold.Chemscore.Internal_Hbond.Weighted>
0.0000

> <Gold.Chemscore.DEClash.Weighted>
1.7557

> <Gold.Chemscore.DEInternal.Weighted>
2.1801

> <Gold.Chemscore.Rot.Weighted>
11.9026

> <Gold.Chemscore.Internal.Correction.Weighted>
0.6251

