#       Name:                C:\Users\porto\OneDrive\projekt\beta1\ligandy\L_6ibl.pdb L_6ibl.pdb 1
#       Creating user name   student
#       Creation time:       Mon Apr 08 14:30:19 2019


#       File generated by GOLD software.
#

@<TRIPOS>MOLECULE
C:\Users\porto\OneDrive\projekt\beta1\ligandy\L_6ibl.pdb L_6ibl.pdb 1|6ibl|mol2|1|dock2
    58    59     1
SMALL
GASTEIGER


@<TRIPOS>ATOM
      1 C1         -21.9270   7.2542  15.8920 C.3            1 <1>               -0.0494
      2 N1         -23.4261   8.3423  17.5747 N.3            1 <1>               -0.3104
      3 O1         -23.1697   3.0494  11.9609 O.3            1 <1>               -0.4951
      4 C2         -22.9239   7.0506  17.0490 C.3            1 <1>                0.0089
      5 N2         -24.4401  12.5437  22.9276 N.am           1 <1>               -0.2852
      6 O2         -25.1018  14.2228  20.9638 O.3            1 <1>               -0.5049
      7 C3         -24.1059   6.1408  16.6484 C.3            1 <1>               -0.0125
      8 O3         -23.9560  10.6629  24.0898 O.2            1 <1>               -0.2792
      9 C4         -23.8531   5.3255  15.3975 C.ar           1 <1>               -0.0457
     10 O4         -22.9837   8.2347  20.1646 O.3            1 <1>               -0.3859
     11 C5         -23.9522   5.9050  14.1352 C.ar           1 <1>               -0.0551
     12 C6         -23.7227   5.1747  12.9792 C.ar           1 <1>               -0.0197
     13 C7         -23.3877   3.8247  13.0746 C.ar           1 <1>                0.1201
     14 C8         -23.2721   3.2308  14.3312 C.ar           1 <1>               -0.0197
     15 C9         -23.5102   3.9803  15.4764 C.ar           1 <1>               -0.0551
     16 C10        -22.9902   1.6361  12.0974 C.3            1 <1>                0.0788
     17 C11        -22.3858   9.2453  18.0790 C.3            1 <1>                0.0264
     18 C12        -22.4095   9.4056  19.5977 C.3            1 <1>                0.0927
     19 C13        -23.1205  10.7095  19.9465 C.ar           1 <1>               -0.0160
     20 C14        -23.4400  10.9994  21.2723 C.ar           1 <1>               -0.0312
     21 C15        -24.0968  12.1823  21.6056 C.ar           1 <1>                0.0755
     22 C16        -24.4599  13.0879  20.6027 C.ar           1 <1>                0.1380
     23 C17        -24.1325  12.8009  19.2789 C.ar           1 <1>               -0.0180
     24 C18        -23.4727  11.6294  18.9656 C.ar           1 <1>               -0.0525
     25 C19        -24.3595  11.8145  24.0393 C.2            1 <1>                0.2042
     26 H11        -21.5819   6.2848  15.5341 H              1 <1>                0.0245
     27 H12        -22.4181   7.7881  15.0779 H              1 <1>                0.0245
     28 H13        -21.0744   7.8355  16.2440 H              1 <1>                0.0245
     29 HN1        -24.0722   8.1227  18.3193 H              1 <1>                0.1223
     30 H2         -22.3884   6.5540  17.8585 H              1 <1>                0.0461
     31 HN2        -24.7860  13.4917  22.9691 H              1 <1>                0.1546
     32 HO2        -25.8864  14.3334  20.4213 H              1 <1>                0.2922
     33 H31        -24.9997   6.7493  16.5085 H              1 <1>                0.0328
     34 H32        -24.3423   5.4706  17.4749 H              1 <1>                0.0328
     35 HO4        -23.8022   8.0260  19.7078 H              1 <1>                0.2103
     36 H5         -24.2135   6.9481  14.0388 H              1 <1>                0.0621
     37 H6         -23.8041   5.6519  12.0139 H              1 <1>                0.0654
     38 H8         -22.9979   2.1892  14.4130 H              1 <1>                0.0654
     39 H9         -23.4244   3.5008  16.4405 H              1 <1>                0.0621
     40 H101       -22.8304   1.1928  11.1146 H              1 <1>                0.0660
     41 H102       -22.1243   1.4387  12.7296 H              1 <1>                0.0660
     42 H103       -23.8786   1.1986  12.5530 H              1 <1>                0.0660
     43 H111       -22.4968  10.2229  17.6100 H              1 <1>                0.0453
     44 H112       -21.4070   8.8786  17.7688 H              1 <1>                0.0453
     45 H12        -21.3788   9.4788  19.9459 H              1 <1>                0.0656
     46 H14        -23.1783  10.3035  22.0559 H              1 <1>                0.0641
     47 H17        -24.3945  13.4955  18.4950 H              1 <1>                0.0655
     48 H18        -23.2306  11.4356  17.9311 H              1 <1>                0.0622
     49 H19        -24.6639  12.2375  24.9853 H              1 <1>                0.1255
     50 ****       -23.8522   8.8364  16.8168 LP             1 <1>                0.0000
     51 ****       -23.9555   3.1837  11.3571 LP             1 <1>                0.0000
     52 ****       -22.3455   3.4038  11.5191 LP             1 <1>                0.0000
     53 ****       -24.4935  15.0057  20.8335 LP             1 <1>                0.0000
     54 ****       -25.3676  14.1637  21.9260 LP             1 <1>                0.0000
     55 ****       -23.6557  10.2012  23.2551 LP             1 <1>                0.0000
     56 ****       -23.9258  10.1816  24.9658 LP             1 <1>                0.0000
     57 ****       -23.1737   8.3923  21.1337 LP             1 <1>                0.0000
     58 ****       -22.3451   7.4710  20.0700 LP             1 <1>                0.0000
@<TRIPOS>BOND
    1    1    4 1     
    2    1   26 1     
    3    1   27 1     
    4    1   28 1     
    5    2   17 1     
    6    2    4 1     
    7    2   29 1     
    8    3   16 1     
    9    3   13 1     
   10    4    7 1     
   11    4   30 1     
   12    5   25 am    
   13    5   21 1     
   14    5   31 1     
   15    6   22 1     
   16    6   32 1     
   17    7    9 1     
   18    7   33 1     
   19    7   34 1     
   20    8   25 2     
   21    9   11 ar    
   22    9   15 ar    
   23   10   18 1     
   24   10   35 1     
   25   11   12 ar    
   26   11   36 1     
   27   12   13 ar    
   28   12   37 1     
   29   13   14 ar    
   30   14   15 ar    
   31   14   38 1     
   32   15   39 1     
   33   16   40 1     
   34   16   41 1     
   35   16   42 1     
   36   17   18 1     
   37   17   43 1     
   38   17   44 1     
   39   18   19 1     
   40   18   45 1     
   41   19   20 ar    
   42   19   24 ar    
   43   20   21 ar    
   44   20   46 1     
   45   21   22 ar    
   46   22   23 ar    
   47   23   24 ar    
   48   23   47 1     
   49   24   48 1     
   50   25   49 1     
   51    2   50 1     
   52    3   51 1     
   53    3   52 1     
   54    6   53 1     
   55    6   54 1     
   56    8   55 1     
   57    8   56 1     
   58   10   57 1     
   59   10   58 1     
@<TRIPOS>SUBSTRUCTURE
      1 ****           1
@<TRIPOS>SET
LONE_PAIRS      STATIC     ATOMS    <user>   **** ""
9 50 51 52 53 54 55 56 57 58
DONOR_HYDROGENS      STATIC     ATOMS    <user>   **** ""
4 29 31 32 35
ATOM$BLUE        STATIC     ATOMS    COLORGROUP SYSTEM
9 50 51 52 53 54 55 56 57 58
ATOM$RED        STATIC     ATOMS    COLORGROUP SYSTEM
4 29 31 32 35
@<TRIPOS>COMMENT
> <Gold.Version>
5.5

> <Gold.Id.Protein>
unknown|bialko_beta1|pdb

> <Gold.Protein.ActiveResidues>
 ALA86   ASP87   VAL90   VAL94   VAL95   GLY98   ALA99   LEU101  VAL102  CYS114 
 GLU115  TRP117  THR118  SER119  LEU120  ASP121  VAL122  CYS124  VAL125  THR126 
 SER128  SER173  PHE174  ILE177  CYS199  ASP200  PHE201  TYR207  SER215  PHE299 
 TRP303  PHE306  PHE307  ASN310  PHE325  VAL326  ASN329  TRP330  GLY332  TYR333 
 SER336 

> <Gold.Score>
     Score     S(PLP)   S(hbond)     S(cho)   S(metal)  DE(clash)   DE(tors)     intcor
     75.37     -72.73       2.00       0.00       0.00       0.00       1.93       0.49

> <Gold.PLP.Fitness>
75.3654

> <Gold.PLP.PLP>
-72.7300

> <Gold.PLP.part.hbond>
-4.7231

> <Gold.PLP.part.metal>
0.0000

> <Gold.PLP.part.buried>
-7.9180

> <Gold.PLP.part.nonpolar>
-60.7650

> <Gold.PLP.part.repulsive>
0.2441

> <Gold.PLP.ligand.clash>
0.0000

> <Gold.PLP.ligand.torsion>
1.9286

> <Gold.PLP.Chemscore.Hbond>
2.0000

> <Gold.PLP.Chemscore.CHOScore>
0.0000

> <Gold.PLP.Chemscore.Metal>
0.0000

> <Gold.Chemscore.Hbonds>
donor molecule, donor type, donor heavy atom, donor atom, acceptor molecule, acceptor atom, score
      L1  H     2    29       P1  2066  1.00
      L1  H    10    35       P1  2066  1.00

> <Gold.PLP.Chemscore.Internal.Correction>
0.4925

