#       Name:                C:\Users\porto\OneDrive\projekt\beta1\ligandy\2y00 2y00 1
#       Creating user name   student
#       Creation time:       Mon Apr 08 15:53:05 2019


#       File generated by GOLD software.
#

@<TRIPOS>MOLECULE
C:\Users\porto\OneDrive\projekt\beta1\ligandy\2y00 2y00 1|2y00|mol2|1|dock6
    52    53     1
SMALL
GASTEIGER


@<TRIPOS>ATOM
      1 C1         -23.4686  11.8053  18.7020 C.3            1 <1>               -0.0150
      2 N1         -23.7511   9.3981  18.1274 N.3            1 <1>               -0.3132
      3 O1         -26.6968  14.9205  16.6335 O.3            1 <1>               -0.5033
      4 C2         -24.6169  12.7948  18.7736 C.ar           1 <1>               -0.0425
      5 O2         -27.7861  15.5038  18.9908 O.3            1 <1>               -0.5033
      6 C3         -25.1823  13.1024  20.0231 C.ar           1 <1>               -0.0549
      7 O3         -23.2246   3.2131  12.3258 O.3            1 <1>               -0.5068
      8 C4         -26.2644  13.9870  20.1499 C.ar           1 <1>               -0.0163
      9 C5         -26.7632  14.6058  19.0013 C.ar           1 <1>                0.1582
     10 C6         -26.1614  14.2955  17.6983 C.ar           1 <1>                0.1585
     11 C7         -25.1017  13.4030  17.6046 C.ar           1 <1>               -0.0133
     12 C8         -23.8554  10.4047  19.1893 C.3            1 <1>                0.0001
     13 C9         -22.5076   8.6666  17.8650 C.3            1 <1>                0.0051
     14 C10        -21.3151   9.6179  17.7131 C.3            1 <1>               -0.0497
     15 C11        -22.5953   7.8038  16.6132 C.3            1 <1>               -0.0338
     16 C12        -23.6921   6.7453  16.7058 C.3            1 <1>               -0.0263
     17 C13        -23.5638   5.7744  15.5584 C.ar           1 <1>               -0.0471
     18 C14        -23.5403   4.3932  15.7869 C.ar           1 <1>               -0.0551
     19 C15        -23.4305   3.5280  14.7012 C.ar           1 <1>               -0.0199
     20 C16        -23.3276   4.0380  13.4018 C.ar           1 <1>                0.1169
     21 C17        -23.3444   5.4021  13.1723 C.ar           1 <1>               -0.0199
     22 C18        -23.4656   6.2710  14.2582 C.ar           1 <1>               -0.0551
     23 H11        -22.6328  12.1770  19.2947 H              1 <1>                0.0325
     24 H12        -23.1062  11.7446  17.6759 H              1 <1>                0.0325
     25 HN1        -24.4148   8.6569  18.2992 H              1 <1>                0.1222
     26 HO1        -26.4477  15.8473  16.6472 H              1 <1>                0.2923
     27 HO2        -28.5739  15.0969  19.3584 H              1 <1>                0.2923
     28 H3         -24.7847  12.6535  20.9209 H              1 <1>                0.0621
     29 HO3        -23.9096   2.5419  12.3695 H              1 <1>                0.2921
     30 H4         -26.6952  14.1779  21.1222 H              1 <1>                0.0655
     31 H7         -24.6516  13.1742  16.6497 H              1 <1>                0.0658
     32 H81        -24.8754  10.4233  19.5720 H              1 <1>                0.0427
     33 H82        -23.2126  10.1208  20.0227 H              1 <1>                0.0427
     34 H9         -22.3131   8.0122  18.7154 H              1 <1>                0.0458
     35 H101       -20.4107   9.0402  17.5199 H              1 <1>                0.0245
     36 H102       -21.4957  10.2984  16.8809 H              1 <1>                0.0245
     37 H103       -21.1893  10.1922  18.6308 H              1 <1>                0.0245
     38 H111       -21.6353   7.3170  16.4403 H              1 <1>                0.0283
     39 H112       -22.7781   8.4397  15.7470 H              1 <1>                0.0283
     40 H121       -24.6676   7.2294  16.6646 H              1 <1>                0.0314
     41 H122       -23.5988   6.2068  17.6494 H              1 <1>                0.0314
     42 H14        -23.6070   4.0109  16.7947 H              1 <1>                0.0621
     43 H15        -23.4244   2.4603  14.8602 H              1 <1>                0.0654
     44 H17        -23.2644   5.7810  12.1642 H              1 <1>                0.0654
     45 H18        -23.4830   7.3371  14.0842 H              1 <1>                0.0621
     46 ****       -23.8827  10.0002  17.3399 LP             1 <1>                0.0000
     47 ****       -27.6932  14.8427  16.6677 LP             1 <1>                0.0000
     48 ****       -26.3581  14.4968  15.7934 LP             1 <1>                0.0000
     49 ****       -27.9675  15.7912  18.0503 LP             1 <1>                0.0000
     50 ****       -27.5354  16.3008  19.5403 LP             1 <1>                0.0000
     51 ****       -22.3265   2.7733  12.3280 LP             1 <1>                0.0000
     52 ****       -23.3329   3.7455  11.4863 LP             1 <1>                0.0000
@<TRIPOS>BOND
    1    1    4 1     
    2    1   12 1     
    3    1   23 1     
    4    1   24 1     
    5    2   12 1     
    6    2   13 1     
    7    2   25 1     
    8    3   10 1     
    9    3   26 1     
   10    4    6 ar    
   11    4   11 ar    
   12    5    9 1     
   13    5   27 1     
   14    6    8 ar    
   15    6   28 1     
   16    7   20 1     
   17    7   29 1     
   18    8    9 ar    
   19    8   30 1     
   20    9   10 ar    
   21   10   11 ar    
   22   11   31 1     
   23   12   32 1     
   24   12   33 1     
   25   13   14 1     
   26   13   15 1     
   27   13   34 1     
   28   14   35 1     
   29   14   36 1     
   30   14   37 1     
   31   15   16 1     
   32   15   38 1     
   33   15   39 1     
   34   16   17 1     
   35   16   40 1     
   36   16   41 1     
   37   17   18 ar    
   38   17   22 ar    
   39   18   19 ar    
   40   18   42 1     
   41   19   20 ar    
   42   19   43 1     
   43   20   21 ar    
   44   21   22 ar    
   45   21   44 1     
   46   22   45 1     
   47    2   46 1     
   48    3   47 1     
   49    3   48 1     
   50    5   49 1     
   51    5   50 1     
   52    7   51 1     
   53    7   52 1     
@<TRIPOS>SUBSTRUCTURE
      1 ****           1
@<TRIPOS>SET
LONE_PAIRS      STATIC     ATOMS    <user>   **** ""
7 46 47 48 49 50 51 52
DONOR_HYDROGENS      STATIC     ATOMS    <user>   **** ""
4 25 26 27 29
ATOM$BLUE        STATIC     ATOMS    COLORGROUP SYSTEM
7 46 47 48 49 50 51 52
ATOM$RED        STATIC     ATOMS    COLORGROUP SYSTEM
4 25 26 27 29
@<TRIPOS>COMMENT
> <Gold.Version>
5.5

> <Gold.Id.Protein>
unknown|bialko_beta1|pdb

> <Gold.Protein.ActiveResidues>
 ALA86   ASP87   VAL90   VAL94   VAL95   GLY98   ALA99   LEU101  VAL102  CYS114 
 GLU115  TRP117  THR118  SER119  LEU120  ASP121  VAL122  CYS124  VAL125  THR126 
 SER128  SER173  PHE174  ILE177  CYS199  ASP200  PHE201  TYR207  SER215  PHE299 
 TRP303  PHE306  PHE307  ASN310  PHE325  VAL326  ASN329  TRP330  GLY332  TYR333 
 SER336 

> <Gold.Score>
     Score     S(PLP)   S(hbond)     S(cho)   S(metal)  DE(clash)   DE(tors)     intcor
     72.70     -70.99       1.00       0.00       0.00       0.00       0.69       0.09

> <Gold.PLP.Fitness>
72.6957

> <Gold.PLP.PLP>
-70.9948

> <Gold.PLP.part.hbond>
-1.0000

> <Gold.PLP.part.metal>
0.0000

> <Gold.PLP.part.buried>
-6.7841

> <Gold.PLP.part.nonpolar>
-63.7087

> <Gold.PLP.part.repulsive>
0.0000

> <Gold.PLP.ligand.clash>
0.0000

> <Gold.PLP.ligand.torsion>
0.6924

> <Gold.PLP.Chemscore.Hbond>
1.0000

> <Gold.PLP.Chemscore.CHOScore>
0.0000

> <Gold.PLP.Chemscore.Metal>
0.0000

> <Gold.Chemscore.Hbonds>
donor molecule, donor type, donor heavy atom, donor atom, acceptor molecule, acceptor atom, score
      L1  H     2    25       P1  2066  1.00

> <Gold.PLP.Chemscore.Internal.Correction>
0.0856

