#       Name:                C:\Users\porto\OneDrive\projekt\beta1\ligandy\L_6h7m.pdb L_6h7m.pdb 1
#       Creating user name   student
#       Creation time:       Mon Apr 08 14:58:29 2019


#       File generated by GOLD software.
#

@<TRIPOS>MOLECULE
C:\Users\porto\OneDrive\projekt\beta1\ligandy\L_6h7m.pdb L_6h7m.pdb 1|6h7m|mol2|1|dock1
    45    45     1
SMALL
GASTEIGER


@<TRIPOS>ATOM
      1 C1         -23.9950   5.5847  16.5266 C.3            1 <1>                0.0926
      2 N1         -23.0813   7.4005  17.9196 N.3            1 <1>               -0.3086
      3 O1         -23.0943   3.1256  11.4851 O.3            1 <1>               -0.5064
      4 C2         -23.7271   6.0335  11.5557 C.3            1 <1>                0.0727
      5 O2         -23.3552   5.3429  10.3493 O.3            1 <1>               -0.3903
      6 C3         -22.9970   6.7332  16.6315 C.3            1 <1>                0.0266
      7 O3         -23.9017   4.7168  17.6630 O.3            1 <1>               -0.3859
      8 C4         -22.5797   8.7589  18.1133 C.3            1 <1>                0.0108
      9 C5         -23.5799   9.7529  17.4778 C.3            1 <1>               -0.0473
     10 C6         -21.1813   8.8970  17.4812 C.3            1 <1>               -0.0473
     11 C7         -22.4696   8.9934  19.6298 C.3            1 <1>               -0.0473
     12 C8         -23.7569   4.9134  15.2146 C.ar           1 <1>               -0.0174
     13 C9         -23.4565   3.5532  15.1127 C.ar           1 <1>               -0.0526
     14 C10        -23.2433   2.9609  13.8654 C.ar           1 <1>               -0.0195
     15 C11        -23.3091   3.7154  12.6888 C.ar           1 <1>                0.1222
     16 C12        -23.6174   5.1602  12.7861 C.ar           1 <1>                0.0195
     17 C13        -23.8303   5.7021  14.0517 C.ar           1 <1>               -0.0472
     18 H1         -24.9977   6.0112  16.5096 H              1 <1>                0.0656
     19 HN1        -24.0489   7.4728  18.1998 H              1 <1>                0.1225
     20 HO1        -22.2983   3.4866  11.0889 H              1 <1>                0.2921
     21 H21        -23.0955   6.9130  11.6785 H              1 <1>                0.0608
     22 H22        -24.7492   6.4013  11.4628 H              1 <1>                0.0608
     23 HO2        -23.5059   5.9145   9.5927 H              1 <1>                0.2098
     24 H31        -23.1879   7.4543  15.8368 H              1 <1>                0.0453
     25 H32        -21.9870   6.3500  16.4864 H              1 <1>                0.0453
     26 HO3        -23.0204   4.3383  17.7059 H              1 <1>                0.2103
     27 H51        -23.2178  10.7716  17.6152 H              1 <1>                0.0247
     28 H52        -23.6753   9.5424  16.4122 H              1 <1>                0.0247
     29 H53        -24.5528   9.6461  17.9573 H              1 <1>                0.0247
     30 H61        -20.8138   9.9124  17.6296 H              1 <1>                0.0247
     31 H62        -20.4973   8.1913  17.9529 H              1 <1>                0.0247
     32 H63        -21.2418   8.6849  16.4135 H              1 <1>                0.0247
     33 H71        -22.0975  10.0003  19.8160 H              1 <1>                0.0247
     34 H72        -23.4523   8.8790  20.0875 H              1 <1>                0.0247
     35 H73        -21.7814   8.2662  20.0610 H              1 <1>                0.0247
     36 H9         -23.3872   2.9472  16.0039 H              1 <1>                0.0622
     37 H10        -23.0236   1.9053  13.7996 H              1 <1>                0.0654
     38 H13        -24.0569   6.7553  14.1269 H              1 <1>                0.0626
     39 ****       -22.4705   6.8057  18.4423 LP             1 <1>                0.0000
     40 ****       -23.8744   3.3006  10.8844 LP             1 <1>                0.0000
     41 ****       -22.9857   2.1396  11.6118 LP             1 <1>                0.0000
     42 ****       -23.9074   4.5144  10.2561 LP             1 <1>                0.0000
     43 ****       -22.3873   5.0952  10.3922 LP             1 <1>                0.0000
     44 ****       -24.5757   3.9829  17.5779 LP             1 <1>                0.0000
     45 ****       -24.0811   5.2390  18.4967 LP             1 <1>                0.0000
@<TRIPOS>BOND
    1    1    6 1     
    2    1    7 1     
    3    1   12 1     
    4    1   18 1     
    5    2    8 1     
    6    2    6 1     
    7    2   19 1     
    8    3   15 1     
    9    3   20 1     
   10    4   16 1     
   11    4    5 1     
   12    4   21 1     
   13    4   22 1     
   14    5   23 1     
   15    6   24 1     
   16    6   25 1     
   17    7   26 1     
   18    8    9 1     
   19    8   10 1     
   20    8   11 1     
   21    9   27 1     
   22    9   28 1     
   23    9   29 1     
   24   10   30 1     
   25   10   31 1     
   26   10   32 1     
   27   11   33 1     
   28   11   34 1     
   29   11   35 1     
   30   12   13 ar    
   31   12   17 ar    
   32   13   14 ar    
   33   13   36 1     
   34   14   15 ar    
   35   14   37 1     
   36   15   16 ar    
   37   16   17 ar    
   38   17   38 1     
   39    2   39 1     
   40    3   40 1     
   41    3   41 1     
   42    5   42 1     
   43    5   43 1     
   44    7   44 1     
   45    7   45 1     
@<TRIPOS>SUBSTRUCTURE
      1 ****           1
@<TRIPOS>SET
LONE_PAIRS      STATIC     ATOMS    <user>   **** ""
7 39 40 41 42 43 44 45
DONOR_HYDROGENS      STATIC     ATOMS    <user>   **** ""
4 19 20 23 26
ATOM$BLUE        STATIC     ATOMS    COLORGROUP SYSTEM
7 39 40 41 42 43 44 45
ATOM$RED        STATIC     ATOMS    COLORGROUP SYSTEM
4 19 20 23 26
@<TRIPOS>COMMENT
> <Gold.Version>
5.5

> <Gold.Id.Protein>
unknown|bialko_beta1|pdb

> <Gold.Protein.ActiveResidues>
 ALA86   ASP87   VAL90   VAL94   VAL95   GLY98   ALA99   LEU101  VAL102  CYS114 
 GLU115  TRP117  THR118  SER119  LEU120  ASP121  VAL122  CYS124  VAL125  THR126 
 SER128  SER173  PHE174  ILE177  CYS199  ASP200  PHE201  TYR207  SER215  PHE299 
 TRP303  PHE306  PHE307  ASN310  PHE325  VAL326  ASN329  TRP330  GLY332  TYR333 
 SER336 

> <Gold.Score>
     Score     S(PLP)   S(hbond)     S(cho)   S(metal)  DE(clash)   DE(tors)     intcor
     57.76     -55.71       1.00       0.00       0.00       0.00       0.55       0.15

> <Gold.PLP.Fitness>
57.7636

> <Gold.PLP.PLP>
-55.7059

> <Gold.PLP.part.hbond>
-4.1758

> <Gold.PLP.part.metal>
0.0000

> <Gold.PLP.part.buried>
-6.4961

> <Gold.PLP.part.nonpolar>
-44.6029

> <Gold.PLP.part.repulsive>
0.0000

> <Gold.PLP.ligand.clash>
0.0000

> <Gold.PLP.ligand.torsion>
0.5455

> <Gold.PLP.Chemscore.Hbond>
1.0000

> <Gold.PLP.Chemscore.CHOScore>
0.0000

> <Gold.PLP.Chemscore.Metal>
0.0000

> <Gold.Chemscore.Hbonds>
donor molecule, donor type, donor heavy atom, donor atom, acceptor molecule, acceptor atom, score
      L1  H     2    19       P1  2066  1.00

> <Gold.PLP.Chemscore.Internal.Correction>
0.1485

