#       Name:                plp ligand
#       Creating user name   student
#       Creation time:       Mon Apr 08 14:58:26 2019


#       File generated by GOLD software.
#

@<TRIPOS>MOLECULE
plp ligand
    45    45     1
SMALL
GASTEIGER


@<TRIPOS>ATOM
      1 C1          -0.6583  -1.1642   0.7533 NONPOLAR       1 <1>                0.0926
      2 N1           0.2167   0.5328   2.3113 DONACC         1 <1>               -0.3086
      3 O1           0.1307  -2.9502  -4.5817 DONACC         1 <1>               -0.5064
      4 C2          -1.4013  -0.4372  -4.1357 NONPOLAR       1 <1>                0.0727
      5 O2          -0.4483   0.4638  -4.7277 DONACC         1 <1>               -0.3903
      6 C3           0.2047   0.0808   0.9303 NONPOLAR       1 <1>                0.0266
      7 O3          -0.3833  -2.1302   1.7753 DONACC         1 <1>               -0.3859
      8 C4           0.6027   1.8958   2.6683 NONPOLAR       1 <1>                0.0108
      9 C5          -0.4313   2.8778   2.0693 NONPOLAR       1 <1>               -0.0473
     10 C6           2.0207   2.1938   2.1443 NONPOLAR       1 <1>               -0.0473
     11 C7           0.6077   1.9818   4.2043 NONPOLAR       1 <1>               -0.0473
     12 C8          -0.4393  -1.6572  -0.6387 NONPOLAR       1 <1>               -0.0174
     13 C9           0.2697  -2.8282  -0.9157 NONPOLAR       1 <1>               -0.0526
     14 C10          0.4507  -3.2582  -2.2327 NONPOLAR       1 <1>               -0.0195
     15 C11         -0.0583  -2.5212  -3.3077 NONPOLAR       1 <1>                0.1222
     16 C12         -0.8033  -1.2732  -3.0257 NONPOLAR       1 <1>                0.0195
     17 C13         -0.9643  -0.8912  -1.6957 NONPOLAR       1 <1>               -0.0472
     18 H1          -1.7023  -0.8652   0.8443 0ÿ£i_          1 <1>                0.0656
     19 HN1          0.8397  -0.1232   2.7603 0ÿ£i_          1 <1>                0.1225
     20 HO1         -0.2793  -2.3332  -5.1917 0ÿ£i_          1 <1>                0.2921
     21 H21         -2.2443   0.1328  -3.7457 0ÿ£i_          1 <1>                0.0608
     22 H22         -1.8063  -1.0942  -4.9057 0ÿ£i_          1 <1>                0.0608
     23 HO2         -0.8743   0.9698  -5.4237 0ÿ£i_          1 <1>                0.2098
     24 H31         -0.1733   0.8788   0.2913 0ÿ£i_          1 <1>                0.0453
     25 H32          1.2237  -0.1362   0.6103 0ÿ£i_          1 <1>                0.0453
     26 HO3         -0.9373  -2.9032   1.6433 0ÿ£i_          1 <1>                0.2103
     27 H51         -0.1553   3.8998   2.3283 0ÿ£i_          1 <1>                0.0247
     28 H52         -0.4493   2.7708   0.9843 0ÿ£i_          1 <1>                0.0247
     29 H53         -1.4193   2.6558   2.4723 0ÿ£i_          1 <1>                0.0247
     30 H61          2.3017   3.2118   2.4143 0ÿ£i_          1 <1>                0.0247
     31 H62          2.7277   1.4928   2.5883 0ÿ£i_          1 <1>                0.0247
     32 H63          2.0377   2.0878   1.0593 0ÿ£i_          1 <1>                0.0247
     33 H71          0.8917   2.9878   4.5113 0ÿ£i_          1 <1>                0.0247
     34 H72         -0.3883   1.7538   4.5843 0ÿ£i_          1 <1>                0.0247
     35 H73          1.3227   1.2638   4.6063 0ÿ£i_          1 <1>                0.0247
     36 H9           0.6847  -3.4122  -0.1077 0ÿ£i_          1 <1>                0.0622
     37 H10          0.9907  -4.1722  -2.4327 0ÿ£i_          1 <1>                0.0654
     38 H13         -1.5083   0.0178  -1.4857 0ÿ£i_          1 <1>                0.0626
     39 ****        -0.7408   0.5631   2.5981 0ÿ£i_          1 <1>                0.0000
     40 ****        -0.2826  -3.8539  -4.6938 0ÿ£i_          1 <1>                0.0000
     41 ****         1.1108  -3.0059  -4.7726 0ÿ£i_          1 <1>                0.0000
     42 ****         0.3106  -0.0606  -5.1139 0ÿ£i_          1 <1>                0.0000
     43 ****        -0.1002   1.0875  -4.0278 0ÿ£i_          1 <1>                0.0000
     44 ****        -0.5763  -1.7311   2.6716 0ÿ£i_          1 <1>                0.0000
     45 ****         0.5791  -2.3983   1.7301 0ÿ£i_          1 <1>                0.0000
@<TRIPOS>BOND
    1    1    6 1     
    2    1    7 1     
    3    1   12 1     
    4    1   18 1     
    5    2    8 1     
    6    2    6 1     
    7    2   19 1     
    8    3   15 1     
    9    3   20 1     
   10    4   16 1     
   11    4    5 1     
   12    4   21 1     
   13    4   22 1     
   14    5   23 1     
   15    6   24 1     
   16    6   25 1     
   17    7   26 1     
   18    8    9 1     
   19    8   10 1     
   20    8   11 1     
   21    9   27 1     
   22    9   28 1     
   23    9   29 1     
   24   10   30 1     
   25   10   31 1     
   26   10   32 1     
   27   11   33 1     
   28   11   34 1     
   29   11   35 1     
   30   12   13 ar    
   31   12   17 ar    
   32   13   14 ar    
   33   13   36 1     
   34   14   15 ar    
   35   14   37 1     
   36   15   16 ar    
   37   16   17 ar    
   38   17   38 1     
   39    2   39 1     
   40    3   40 1     
   41    3   41 1     
   42    5   42 1     
   43    5   43 1     
   44    7   44 1     
   45    7   45 1     
@<TRIPOS>SUBSTRUCTURE
      1 ****           1
@<TRIPOS>SET
LONE_PAIRS      STATIC     ATOMS    <user>   **** ""
7 39 40 41 42 43 44 45
DONOR_HYDROGENS      STATIC     ATOMS    <user>   **** ""
4 19 20 23 26
ATOM$BLUE        STATIC     ATOMS    COLORGROUP SYSTEM
7 39 40 41 42 43 44 45
ATOM$RED        STATIC     ATOMS    COLORGROUP SYSTEM
4 19 20 23 26
