#       Name:                C:\Users\porto\OneDrive\projekt\beta2\ligandy\L_6mxt.pdb L_6mxt.pdb 1
#       Creating user name   student
#       Creation time:       Mon Apr 01 15:26:53 2019


#       File generated by GOLD software.
#

@<TRIPOS>MOLECULE
C:\Users\porto\OneDrive\projekt\beta2\ligandy\L_6mxt.pdb L_6mxt.pdb 1|6mxt|mol2|1|dock9
    76    77     1
SMALL
GASTEIGER


@<TRIPOS>ATOM
      1 CAD        -39.1458   4.6911   9.5531 C.ar           1 <1>               -0.0617
      2 CAE        -38.6160   5.9513   9.3007 C.ar           1 <1>               -0.0615
      3 CAF        -38.5606   3.8755  10.5127 C.ar           1 <1>               -0.0615
      4 CAG        -37.5036   6.3946  10.0110 C.ar           1 <1>               -0.0586
      5 CAH        -37.4483   4.3174  11.2220 C.ar           1 <1>               -0.0586
      6 CAI        -27.7340  12.1396   5.1800 C.ar           1 <1>               -0.0195
      7 CAJ        -28.9022  11.7135   5.7996 C.ar           1 <1>               -0.0526
      8 CAK        -27.6876   9.8890   6.8119 C.ar           1 <1>               -0.0472
      9 CAL        -33.3485   5.7972   5.2321 C.3            1 <1>               -0.0518
     10 CAM        -34.2918   5.2417   6.3032 C.3            1 <1>               -0.0509
     11 CAN        -33.1727   7.3047   5.4248 C.3            1 <1>               -0.0404
     12 CAO        -34.4024   3.7224   6.1526 C.3            1 <1>               -0.0295
     13 CAP        -33.8255   5.0010  10.5178 C.3            1 <1>               -0.0292
     14 CAQ        -34.7558   4.8927  11.7305 C.3            1 <1>               -0.0470
     15 CAR        -25.3258   9.6264   6.3775 C.3            1 <1>                0.0727
     16 CAS        -32.2866   7.5876   6.6435 C.3            1 <1>               -0.0040
     17 CAT        -34.7498   3.1175   7.5108 C.3            1 <1>                0.0477
     18 CAU        -34.5945   4.6563   9.2434 C.3            1 <1>                0.0477
     19 CAV        -35.8048   6.0125  11.6830 C.3            1 <1>               -0.0276
     20 CAW        -30.9827   9.5810   6.1648 C.3            1 <1>                0.0261
     21 CAZ        -36.9174   5.5777  10.9712 C.ar           1 <1>               -0.0474
     22 NAX        -30.9707   8.1130   6.2329 N.3            1 <1>               -0.3132
     23 OAA        -25.5177   8.2575   6.0135 O.3            1 <1>               -0.3903
     24 OAB        -25.3887  11.8219   4.7939 O.3            1 <1>               -0.5064
     25 OAC        -30.7046  11.2791   7.8374 O.3            1 <1>               -0.3859
     26 OAY        -33.8795   3.6666   8.5033 O.3            1 <1>               -0.3798
     27 CBA        -26.5546  11.4392   5.3804 C.ar           1 <1>                0.1222
     28 CBB        -28.8771  10.5898   6.6164 C.ar           1 <1>               -0.0174
     29 CBC        -26.5184  10.3132   6.1924 C.ar           1 <1>                0.0195
     30 CBD        -30.0475  10.1674   7.2299 C.3            1 <1>                0.0926
     31 HAD        -40.0102   4.3454   9.0053 H              1 <1>                0.0618
     32 HAE        -39.0671   6.5873   8.5535 H              1 <1>                0.0618
     33 HAF        -38.9689   2.8958  10.7099 H              1 <1>                0.0618
     34 HAG        -37.0943   7.3748   9.8168 H              1 <1>                0.0620
     35 HAH        -36.9965   3.6810  11.9687 H              1 <1>                0.0620
     36 HAI        -27.7421  13.0130   4.5441 H              1 <1>                0.0654
     37 HAJ        -29.8241  12.2545   5.6446 H              1 <1>                0.0622
     38 HAK        -27.6765   9.0147   7.4458 H              1 <1>                0.0626
     39 HAL1       -32.3793   5.3054   5.3122 H              1 <1>                0.0266
     40 HAL2       -33.7665   5.6040   4.2442 H              1 <1>                0.0266
     41 HAM1       -35.2783   5.6914   6.1866 H              1 <1>                0.0266
     42 HAM2       -33.8997   5.4812   7.2913 H              1 <1>                0.0266
     43 HAN1       -34.1485   7.7681   5.5697 H              1 <1>                0.0277
     44 HAN2       -32.7130   7.7330   4.5339 H              1 <1>                0.0277
     45 HAO1       -33.4489   3.3215   5.8098 H              1 <1>                0.0287
     46 HAO2       -35.1895   3.4852   5.4374 H              1 <1>                0.0287
     47 HAP1       -33.4401   6.0184  10.4454 H              1 <1>                0.0287
     48 HAP2       -32.9917   4.3091  10.6372 H              1 <1>                0.0287
     49 HAQ1       -34.1711   4.9815  12.6459 H              1 <1>                0.0269
     50 HAQ2       -35.2570   3.9250  11.7178 H              1 <1>                0.0269
     51 HAR1       -24.5527  10.0644   5.7462 H              1 <1>                0.0608
     52 HAR2       -25.0314   9.6857   7.4255 H              1 <1>                0.0608
     53 HAS1       -32.1485   6.6680   7.2128 H              1 <1>                0.0424
     54 HAS2       -32.7804   8.3120   7.2912 H              1 <1>                0.0424
     55 HAT1       -34.6182   2.0365   7.4708 H              1 <1>                0.0560
     56 HAT2       -35.7830   3.3570   7.7620 H              1 <1>                0.0560
     57 HAU1       -34.7083   5.5533   8.6347 H              1 <1>                0.0560
     58 HAU2       -35.5793   4.2710   9.5066 H              1 <1>                0.0560
     59 HAV1       -35.3797   6.8876  11.1924 H              1 <1>                0.0313
     60 HAV2       -36.1028   6.2743  12.6982 H              1 <1>                0.0313
     61 HAW1       -30.6531   9.9014   5.1764 H              1 <1>                0.0453
     62 HAW2       -31.9970   9.9441   6.3327 H              1 <1>                0.0453
     63 HNAX       -30.2697   7.8273   6.9021 H              1 <1>                0.1220
     64 HOAA       -26.4542   8.0476   6.0368 H              1 <1>                0.2098
     65 HOAB       -24.7882  12.1572   5.4630 H              1 <1>                0.2921
     66 HOAC       -30.9518  11.9137   7.1612 H              1 <1>                0.2103
     67 HBD        -29.8214   9.4121   7.9823 H              1 <1>                0.0656
     68 ****       -30.7614   7.7478   5.3258 LP             1 <1>                0.0000
     69 ****       -25.0285   7.6698   6.6579 LP             1 <1>                0.0000
     70 ****       -25.1652   8.1057   5.0901 LP             1 <1>                0.0000
     71 ****       -25.5734  12.5395   4.1224 LP             1 <1>                0.0000
     72 ****       -24.9724  11.0362   4.3363 LP             1 <1>                0.0000
     73 ****       -30.0868  11.7140   8.4925 LP             1 <1>                0.0000
     74 ****       -31.5252  10.9621   8.3128 LP             1 <1>                0.0000
     75 ****       -33.0865   4.0853   8.0609 LP             1 <1>                0.0000
     76 ****       -33.5730   2.9417   9.1201 LP             1 <1>                0.0000
@<TRIPOS>BOND
    1    1    3 ar    
    2    1    2 ar    
    3    1   31 1     
    4    2    4 ar    
    5    2   32 1     
    6    3    5 ar    
    7    3   33 1     
    8    4   21 ar    
    9    4   34 1     
   10    5   21 ar    
   11    5   35 1     
   12    6   27 ar    
   13    6    7 ar    
   14    6   36 1     
   15    7   28 ar    
   16    7   37 1     
   17    8   29 ar    
   18    8   28 ar    
   19    8   38 1     
   20    9   11 1     
   21    9   10 1     
   22    9   39 1     
   23    9   40 1     
   24   10   12 1     
   25   10   41 1     
   26   10   42 1     
   27   11   16 1     
   28   11   43 1     
   29   11   44 1     
   30   12   17 1     
   31   12   45 1     
   32   12   46 1     
   33   13   18 1     
   34   13   14 1     
   35   13   47 1     
   36   13   48 1     
   37   14   19 1     
   38   14   49 1     
   39   14   50 1     
   40   15   23 1     
   41   15   29 1     
   42   15   51 1     
   43   15   52 1     
   44   16   22 1     
   45   16   53 1     
   46   16   54 1     
   47   17   26 1     
   48   17   55 1     
   49   17   56 1     
   50   18   26 1     
   51   18   57 1     
   52   18   58 1     
   53   19   21 1     
   54   19   59 1     
   55   19   60 1     
   56   20   30 1     
   57   20   22 1     
   58   20   61 1     
   59   20   62 1     
   60   22   63 1     
   61   23   64 1     
   62   24   27 1     
   63   24   65 1     
   64   25   30 1     
   65   25   66 1     
   66   27   29 ar    
   67   28   30 1     
   68   30   67 1     
   69   22   68 1     
   70   23   69 1     
   71   23   70 1     
   72   24   71 1     
   73   24   72 1     
   74   25   73 1     
   75   25   74 1     
   76   26   75 1     
   77   26   76 1     
@<TRIPOS>SUBSTRUCTURE
      1 ****           1
@<TRIPOS>SET
LONE_PAIRS      STATIC     ATOMS    <user>   **** ""
9 68 69 70 71 72 73 74 75 76
DONOR_HYDROGENS      STATIC     ATOMS    <user>   **** ""
4 63 64 65 66
ATOM$BLUE        STATIC     ATOMS    COLORGROUP SYSTEM
9 68 69 70 71 72 73 74 75 76
ATOM$RED        STATIC     ATOMS    COLORGROUP SYSTEM
4 63 64 65 66
@<TRIPOS>COMMENT
> <Gold.Version>
5.5

> <Gold.Id.Protein>
unknown|dok_beta2|pdb

> <Gold.Protein.RotatedTorsions>
[ 4175 4166 4165 4163 ] final  -66.17 input -179.98 | X-H torsion
[ 1294 1290 1288 1285 ] final   45.87 input -179.99 | X-H torsion
[ 4033 4024 4023 4021 ] final   12.51 input  179.98 | X-H torsion
[ 1412 1408 1406 1403 ] final -174.98 input -179.99 | X-H torsion
[ 2830 2825 2824 2821 ] final  147.08 input -179.98 | X-H torsion
[ 2723 2714 2713 2711 ] final  -92.35 input -179.98 | X-H torsion
[ 2773 2768 2767 2764 ] final  -61.58 input  180.00 | X-H torsion

> <Gold.Protein.ActiveResidues>
 TRP109  THR110  ASP113  VAL114  VAL117  THR118  PHE193  TYR199  SER203  SER207 
 PHE208  TRP286  PHE289  PHE290  ASN293  TYR308  ASN312  TYR316 

> <Gold.Protein.RotatedAtoms>
  -35.3993    4.4255    1.3890 H   0  0  0  0  0  0  0  0  0  0  0  0  # atno 1294 bound_to 1290
  -27.0925   14.6423    1.7427 H   0  0  0  0  0  0  0  0  0  0  0  0  # atno 1412 bound_to 1408
  -26.0839    8.3672    2.4905 H   0  0  0  0  0  0  0  0  0  0  0  0  # atno 2723 bound_to 2714
  -24.1892   10.5993    3.8348 H   0  0  0  0  0  0  0  0  0  0  0  0  # atno 2773 bound_to 2768
  -24.5018   12.7424    3.0468 H   0  0  0  0  0  0  0  0  0  0  0  0  # atno 2830 bound_to 2825
  -29.2645    5.8652   10.6046 H   0  0  0  0  0  0  0  0  0  0  0  0  # atno 4033 bound_to 4024
  -36.6422    8.4089    8.5767 H   0  0  0  0  0  0  0  0  0  0  0  0  # atno 4175 bound_to 4166
  -36.3221    9.3370    7.3129 LP  0  0  0  0  0  0  0  0  0  0  0  0  # atno 4597 bound_to 4166
  -37.7984    8.6647    7.5003 LP  0  0  0  0  0  0  0  0  0  0  0  0  # atno 4598 bound_to 4166
  -34.4761    4.5031    2.6940 LP  0  0  0  0  0  0  0  0  0  0  0  0  # atno 4603 bound_to 1290
  -34.0727    3.5321    1.4446 LP  0  0  0  0  0  0  0  0  0  0  0  0  # atno 4604 bound_to 1290
  -27.8183    5.6696   11.2622 LP  0  0  0  0  0  0  0  0  0  0  0  0  # atno 4607 bound_to 4024
  -28.6072    7.0934   11.3930 LP  0  0  0  0  0  0  0  0  0  0  0  0  # atno 4608 bound_to 4024
  -28.3752   14.7299    2.6957 LP  0  0  0  0  0  0  0  0  0  0  0  0  # atno 4611 bound_to 1408
  -26.9075   15.2084    3.2282 LP  0  0  0  0  0  0  0  0  0  0  0  0  # atno 4612 bound_to 1408
  -23.2649   13.6307    2.5558 LP  0  0  0  0  0  0  0  0  0  0  0  0  # atno 4613 bound_to 2825
  -24.7809   13.9581    2.0446 LP  0  0  0  0  0  0  0  0  0  0  0  0  # atno 4614 bound_to 2825

> <Gold.Score>
     Score     S(PLP)   S(hbond)     S(cho)   S(metal)  DE(clash)   DE(tors)     intcor
     93.24     -93.17       1.57       0.00       0.00       0.00       3.12       1.62

> <Gold.PLP.Fitness>
93.2424

> <Gold.PLP.PLP>
-93.1714

> <Gold.PLP.part.hbond>
-3.0000

> <Gold.PLP.part.metal>
0.0000

> <Gold.PLP.part.buried>
-7.3707

> <Gold.PLP.part.nonpolar>
-84.1830

> <Gold.PLP.part.repulsive>
0.0085

> <Gold.PLP.ligand.clash>
0.0000

> <Gold.PLP.ligand.torsion>
3.1221

> <Gold.PLP.Chemscore.Hbond>
1.5651

> <Gold.PLP.Chemscore.CHOScore>
0.0000

> <Gold.PLP.Chemscore.Metal>
0.0000

> <Gold.Chemscore.Hbonds>
donor molecule, donor type, donor heavy atom, donor atom, acceptor molecule, acceptor atom, score
      P1  H  2825  2830       L1    24  0.57
      P1  H  2768  2773       L1    24  1.00

> <Gold.PLP.Chemscore.Internal.Correction>
1.6197

