#       Name:                plp ligand
#       Creating user name   student
#       Creation time:       Mon Apr 01 15:25:08 2019


#       File generated by GOLD software.
#

@<TRIPOS>MOLECULE
plp ligand
    76    77     1
SMALL
GASTEIGER


@<TRIPOS>ATOM
      1 CAD          2.5125  -5.5738   5.5307 NONPOLAR       1 <1>               -0.0617
      2 CAE          2.5135  -4.1898   5.3997 NONPOLAR       1 <1>               -0.0615
      3 CAF          2.2055  -6.3708   4.4357 NONPOLAR       1 <1>               -0.0615
      4 CAG          2.2105  -3.6058   4.1727 NONPOLAR       1 <1>               -0.0586
      5 CAH          1.9015  -5.7878   3.2097 NONPOLAR       1 <1>               -0.0586
      6 CAI          2.4155   6.6662  -3.3103 NONPOLAR       1 <1>               -0.0195
      7 CAJ          1.2215   6.2992  -2.7023 NONPOLAR       1 <1>               -0.0526
      8 CAK          2.3175   4.3792  -1.7323 NONPOLAR       1 <1>               -0.0472
      9 CAL         -3.9545  -0.0508  -1.6163 NONPOLAR       1 <1>               -0.0518
     10 CAM         -3.5925  -0.9978  -0.4683 NONPOLAR       1 <1>               -0.0509
     11 CAN         -3.5955   1.3872  -1.2373 NONPOLAR       1 <1>               -0.0404
     12 CAO         -4.2925  -2.3438  -0.6723 NONPOLAR       1 <1>               -0.0295
     13 CAP         -0.8685  -3.7408   2.3117 NONPOLAR       1 <1>               -0.0292
     14 CAQ          0.2135  -4.3078   1.3867 NONPOLAR       1 <1>               -0.0470
     15 CAR          4.6595   3.9802  -2.1703 NONPOLAR       1 <1>                0.0727
     16 CAS         -2.1705   1.7202  -1.6943 NONPOLAR       1 <1>               -0.0040
     17 CAT         -3.9695  -3.2508   0.5127 NONPOLAR       1 <1>                0.0477
     18 CAU         -2.2505  -4.1398   1.7967 NONPOLAR       1 <1>                0.0477
     19 CAV          1.5965  -3.8278   1.8487 NONPOLAR       1 <1>               -0.0276
     20 CAW         -0.5075   3.4762  -1.9263 NONPOLAR       1 <1>                0.0261
     21 CAZ          1.9025  -4.4038   3.0767 NONPOLAR       1 <1>               -0.0474
     22 NAX         -1.8285   3.1222  -1.3883 DONACC         1 <1>               -0.3132
     23 OAA          4.7965   3.0952  -3.2843 DONACC         1 <1>               -0.3903
     24 OAB          4.7375   6.2122  -3.7013 DONACC         1 <1>               -0.5064
     25 OAC         -1.0105   5.7932  -1.5563 DONACC         1 <1>               -0.3859
     26 OAY         -2.5515  -3.4058   0.6097 ACCEPTOR       1 <1>               -0.3798
     27 CBA          3.5485   5.8892  -3.1253 NONPOLAR       1 <1>                0.1222
     28 CBB          1.1745   5.1572  -1.9123 NONPOLAR       1 <1>               -0.0174
     29 CBC          3.5125   4.7442  -2.3403 NONPOLAR       1 <1>                0.0195
     30 CBD         -0.0215   4.7942  -1.3103 NONPOLAR       1 <1>                0.0926
     31 HAD          2.7495  -6.0298   6.4807 0ÿj_          1 <1>                0.0618
     32 HAE          2.7495  -3.5668   6.2497 0ÿj_          1 <1>                0.0618
     33 HAF          2.2025  -7.4458   4.5347 0ÿj_          1 <1>                0.0618
     34 HAG          2.2145  -2.5308   4.0707 0ÿj_          1 <1>                0.0620
     35 HAH          1.6645  -6.4108   2.3597 0ÿj_          1 <1>                0.0620
     36 HAI          2.4635   7.5532  -3.9253 0ÿj_          1 <1>                0.0654
     37 HAJ          0.3355   6.9002  -2.8453 0ÿj_          1 <1>                0.0622
     38 HAK          2.2725   3.4912  -1.1193 0ÿj_          1 <1>                0.0626
     39 HAL1        -3.4035  -0.3388  -2.5113 0ÿj_          1 <1>                0.0266
     40 HAL2        -5.0235  -0.1168  -1.8183 0ÿj_          1 <1>                0.0266
     41 HAM1        -3.9135  -0.5608   0.4777 0ÿj_          1 <1>                0.0266
     42 HAM2        -2.5135  -1.1488  -0.4493 0ÿj_          1 <1>                0.0266
     43 HAN1        -3.6675   1.5062  -0.1563 0ÿj_          1 <1>                0.0277
     44 HAN2        -4.2985   2.0732  -1.7103 0ÿj_          1 <1>                0.0277
     45 HAO1        -3.9315  -2.8048  -1.5913 0ÿj_          1 <1>                0.0287
     46 HAO2        -5.3695  -2.1878  -0.7273 0ÿj_          1 <1>                0.0287
     47 HAP1        -0.7285  -4.1348   3.3187 0ÿj_          1 <1>                0.0287
     48 HAP2        -0.7905  -2.6538   2.3377 0ÿj_          1 <1>                0.0287
     49 HAQ1         0.0335  -3.9688   0.3667 0ÿj_          1 <1>                0.0269
     50 HAQ2         0.1795  -5.3968   1.4137 0ÿj_          1 <1>                0.0269
     51 HAR1         5.5285   4.6362  -2.1193 0ÿj_          1 <1>                0.0608
     52 HAR2         4.5755   3.3982  -1.2523 0ÿj_          1 <1>                0.0608
     53 HAS1        -2.0855   1.5522  -2.7683 0ÿj_          1 <1>                0.0424
     54 HAS2        -1.4645   1.0572  -1.1943 0ÿj_          1 <1>                0.0424
     55 HAT1        -4.4315  -4.2258   0.3597 0ÿj_          1 <1>                0.0560
     56 HAT2        -4.3485  -2.7998   1.4297 0ÿj_          1 <1>                0.0560
     57 HAU1        -2.9985  -3.9208   2.5587 0ÿj_          1 <1>                0.0560
     58 HAU2        -2.2615  -5.2068   1.5757 0ÿj_          1 <1>                0.0560
     59 HAV1         1.5895  -2.7428   1.9487 0ÿj_          1 <1>                0.0313
     60 HAV2         2.3465  -4.1198   1.1137 0ÿj_          1 <1>                0.0313
     61 HAW1         0.2035   2.6832  -1.6943 0ÿj_          1 <1>                0.0453
     62 HAW2        -0.5735   3.5842  -3.0093 0ÿj_          1 <1>                0.0453
     63 HNAX        -2.5185   3.7352  -1.7993 0ÿj_          1 <1>                0.1220
     64 HOAA         5.5875   2.5622  -3.1753 0ÿj_          1 <1>                0.2098
     65 HOAB         5.3985   5.5602  -3.4593 0ÿj_          1 <1>                0.2921
     66 HOAC        -0.7245   6.6272  -1.1773 0ÿj_          1 <1>                0.2103
     67 HBD          0.1245   4.6712  -0.2373 0ÿj_          1 <1>                0.0656
     68 ****        -1.8123   3.2265  -0.3939 0ÿj_          1 <1>                0.0000
     69 ****         4.8680   3.6290  -4.1269 0ÿj_          1 <1>                0.0000
     70 ****         3.9965   2.4975  -3.3352 0ÿj_          1 <1>                0.0000
     71 ****         5.0276   7.1147  -3.3830 0ÿj_          1 <1>                0.0000
     72 ****         4.6328   6.2273  -4.6957 0ÿj_          1 <1>                0.0000
     73 ****        -1.8753   5.5161  -1.1377 0ÿj_          1 <1>                0.0000
     74 ****        -1.1369   5.9012  -2.5424 0ÿj_          1 <1>                0.0000
     75 ****        -2.1168  -2.5061   0.6513 0ÿj_          1 <1>                0.0000
     76 ****        -2.2121  -3.9033  -0.1886 0ÿj_          1 <1>                0.0000
@<TRIPOS>BOND
    1    1    3 ar    
    2    1    2 ar    
    3    1   31 1     
    4    2    4 ar    
    5    2   32 1     
    6    3    5 ar    
    7    3   33 1     
    8    4   21 ar    
    9    4   34 1     
   10    5   21 ar    
   11    5   35 1     
   12    6   27 ar    
   13    6    7 ar    
   14    6   36 1     
   15    7   28 ar    
   16    7   37 1     
   17    8   29 ar    
   18    8   28 ar    
   19    8   38 1     
   20    9   11 1     
   21    9   10 1     
   22    9   39 1     
   23    9   40 1     
   24   10   12 1     
   25   10   41 1     
   26   10   42 1     
   27   11   16 1     
   28   11   43 1     
   29   11   44 1     
   30   12   17 1     
   31   12   45 1     
   32   12   46 1     
   33   13   18 1     
   34   13   14 1     
   35   13   47 1     
   36   13   48 1     
   37   14   19 1     
   38   14   49 1     
   39   14   50 1     
   40   15   23 1     
   41   15   29 1     
   42   15   51 1     
   43   15   52 1     
   44   16   22 1     
   45   16   53 1     
   46   16   54 1     
   47   17   26 1     
   48   17   55 1     
   49   17   56 1     
   50   18   26 1     
   51   18   57 1     
   52   18   58 1     
   53   19   21 1     
   54   19   59 1     
   55   19   60 1     
   56   20   30 1     
   57   20   22 1     
   58   20   61 1     
   59   20   62 1     
   60   22   63 1     
   61   23   64 1     
   62   24   27 1     
   63   24   65 1     
   64   25   30 1     
   65   25   66 1     
   66   27   29 ar    
   67   28   30 1     
   68   30   67 1     
   69   22   68 1     
   70   23   69 1     
   71   23   70 1     
   72   24   71 1     
   73   24   72 1     
   74   25   73 1     
   75   25   74 1     
   76   26   75 1     
   77   26   76 1     
@<TRIPOS>SUBSTRUCTURE
      1 ****           1
@<TRIPOS>SET
LONE_PAIRS      STATIC     ATOMS    <user>   **** ""
9 68 69 70 71 72 73 74 75 76
DONOR_HYDROGENS      STATIC     ATOMS    <user>   **** ""
4 63 64 65 66
ATOM$BLUE        STATIC     ATOMS    COLORGROUP SYSTEM
9 68 69 70 71 72 73 74 75 76
ATOM$RED        STATIC     ATOMS    COLORGROUP SYSTEM
4 63 64 65 66
