#       Name:                C:\Users\porto\OneDrive\projekt\beta1\ligandy\L_6h7j.pdb L_6h7j.pdb 1
#       Creating user name   student
#       Creation time:       Mon Apr 08 14:58:22 2019


#       File generated by GOLD software.
#

@<TRIPOS>MOLECULE
C:\Users\porto\OneDrive\projekt\beta1\ligandy\L_6h7j.pdb L_6h7j.pdb 1|6h7j|mol2|1|dock3
    39    39     1
SMALL
GASTEIGER


@<TRIPOS>ATOM
      1 CAE        -23.6592   6.6512  16.5325 C.3            1 <1>                0.0927
      2 CAF        -22.4902   7.6440  16.5256 C.3            1 <1>                0.0263
      3 CAG        -21.5408   9.6151  17.6489 C.3            1 <1>                0.0021
      4 CAH        -23.5127   5.6559  15.3736 C.ar           1 <1>               -0.0143
      5 CAI        -21.8991  10.7551  18.6131 C.3            1 <1>               -0.0499
      6 CAJ        -20.2620   8.8966  18.1114 C.3            1 <1>               -0.0499
      7 CAK        -23.4437   6.1373  14.0646 C.ar           1 <1>               -0.0109
      8 CAL        -23.4538   4.2777  15.5997 C.ar           1 <1>               -0.0524
      9 CAM        -23.2990   5.2600  12.9909 C.ar           1 <1>                0.1586
     10 CAN        -23.3234   3.3948  14.5295 C.ar           1 <1>               -0.0162
     11 CAO        -23.2457   3.8873  13.2290 C.ar           1 <1>                0.1582
     12 NAD        -22.7080   8.7116  17.5276 N.3            1 <1>               -0.3110
     13 OAA        -23.6766   5.9834  17.7905 O.3            1 <1>               -0.3859
     14 OAB        -23.2235   5.7391  11.7190 O.3            1 <1>               -0.5033
     15 OAC        -23.1195   3.0252  12.1969 O.3            1 <1>               -0.5033
     16 HAE        -24.5924   7.2019  16.4107 H              1 <1>                0.0656
     17 HAF1       -22.3978   8.0893  15.5354 H              1 <1>                0.0453
     18 HAF2       -21.5644   7.1158  16.7536 H              1 <1>                0.0453
     19 HAG        -21.3480  10.0503  16.6686 H              1 <1>                0.0455
     20 HAI1       -22.8070  11.2511  18.2693 H              1 <1>                0.0245
     21 HAI2       -22.0638  10.3497  19.6113 H              1 <1>                0.0245
     22 HAI3       -21.0813  11.4750  18.6445 H              1 <1>                0.0245
     23 HAJ1       -19.4453   9.6148  18.1794 H              1 <1>                0.0245
     24 HAJ2       -20.4318   8.4455  19.0889 H              1 <1>                0.0245
     25 HAJ3       -20.0017   8.1190  17.3933 H              1 <1>                0.0245
     26 HAK        -23.5023   7.1986  13.8764 H              1 <1>                0.0659
     27 HAL        -23.5093   3.8924  16.6074 H              1 <1>                0.0622
     28 HAN        -23.2822   2.3305  14.7089 H              1 <1>                0.0655
     29 HNAD       -23.5075   9.2675  17.2589 H              1 <1>                0.1223
     30 HOAA       -24.3388   6.3845  18.3573 H              1 <1>                0.2103
     31 HOAB       -22.9530   6.6597  11.7395 H              1 <1>                0.2923
     32 HOAC       -22.1898   2.9079  11.9891 H              1 <1>                0.2923
     33 ****       -22.8551   8.2621  18.4087 LP             1 <1>                0.0000
     34 ****       -22.7776   6.0614  18.2215 LP             1 <1>                0.0000
     35 ****       -23.8972   5.0179  17.6521 LP             1 <1>                0.0000
     36 ****       -24.1193   5.6645  11.2809 LP             1 <1>                0.0000
     37 ****       -22.5540   5.2064  11.2013 LP             1 <1>                0.0000
     38 ****       -23.5960   3.3907  11.3973 LP             1 <1>                0.0000
     39 ****       -23.5185   2.1435  12.4485 LP             1 <1>                0.0000
@<TRIPOS>BOND
    1    1    4 1     
    2    1   13 1     
    3    1    2 1     
    4    1   16 1     
    5    2   12 1     
    6    2   17 1     
    7    2   18 1     
    8    3    6 1     
    9    3   12 1     
   10    3    5 1     
   11    3   19 1     
   12    4    7 ar    
   13    4    8 ar    
   14    5   20 1     
   15    5   21 1     
   16    5   22 1     
   17    6   23 1     
   18    6   24 1     
   19    6   25 1     
   20    7    9 ar    
   21    7   26 1     
   22    8   10 ar    
   23    8   27 1     
   24    9   14 1     
   25    9   11 ar    
   26   10   11 ar    
   27   10   28 1     
   28   11   15 1     
   29   12   29 1     
   30   13   30 1     
   31   14   31 1     
   32   15   32 1     
   33   12   33 1     
   34   13   34 1     
   35   13   35 1     
   36   14   36 1     
   37   14   37 1     
   38   15   38 1     
   39   15   39 1     
@<TRIPOS>SUBSTRUCTURE
      1 ****           1
@<TRIPOS>SET
LONE_PAIRS      STATIC     ATOMS    <user>   **** ""
7 33 34 35 36 37 38 39
DONOR_HYDROGENS      STATIC     ATOMS    <user>   **** ""
4 29 30 31 32
ATOM$BLUE        STATIC     ATOMS    COLORGROUP SYSTEM
7 33 34 35 36 37 38 39
ATOM$RED        STATIC     ATOMS    COLORGROUP SYSTEM
4 29 30 31 32
@<TRIPOS>COMMENT
> <Gold.Version>
5.5

> <Gold.Id.Protein>
unknown|bialko_beta1|pdb

> <Gold.Protein.ActiveResidues>
 ALA86   ASP87   VAL90   VAL94   VAL95   GLY98   ALA99   LEU101  VAL102  CYS114 
 GLU115  TRP117  THR118  SER119  LEU120  ASP121  VAL122  CYS124  VAL125  THR126 
 SER128  SER173  PHE174  ILE177  CYS199  ASP200  PHE201  TYR207  SER215  PHE299 
 TRP303  PHE306  PHE307  ASN310  PHE325  VAL326  ASN329  TRP330  GLY332  TYR333 
 SER336 

> <Gold.Score>
     Score     S(PLP)   S(hbond)     S(cho)   S(metal)  DE(clash)   DE(tors)     intcor
     53.27     -50.43       1.00       0.00       0.00       0.00       0.09       0.01

> <Gold.PLP.Fitness>
53.2678

> <Gold.PLP.PLP>
-50.4332

> <Gold.PLP.part.hbond>
-3.6059

> <Gold.PLP.part.metal>
0.0000

> <Gold.PLP.part.buried>
-5.7302

> <Gold.PLP.part.nonpolar>
-41.8377

> <Gold.PLP.part.repulsive>
0.0000

> <Gold.PLP.ligand.clash>
0.0000

> <Gold.PLP.ligand.torsion>
0.0895

> <Gold.PLP.Chemscore.Hbond>
1.0000

> <Gold.PLP.Chemscore.CHOScore>
0.0000

> <Gold.PLP.Chemscore.Metal>
0.0000

> <Gold.Chemscore.Hbonds>
donor molecule, donor type, donor heavy atom, donor atom, acceptor molecule, acceptor atom, score
      L1  H    13    30       P1  2066  1.00

> <Gold.PLP.Chemscore.Internal.Correction>
0.0135

