#       Name:                C:\Users\porto\OneDrive\projekt\beta2\ligandy\L_4ldl.pdb L_4ldl.pdb 1
#       Creating user name   student
#       Creation time:       Mon Apr 08 14:22:30 2019


#       File generated by GOLD software.
#

@<TRIPOS>MOLECULE
C:\Users\porto\OneDrive\projekt\beta2\ligandy\L_4ldl.pdb L_4ldl.pdb 1|4ldl|mol2|1|dock1
    55    56     1
SMALL
GASTEIGER


@<TRIPOS>ATOM
      1 CAA        -32.1995   7.1299   5.4592 C.3            1 <1>               -0.0467
      2 CAB        -32.5156   7.5236   6.8987 C.3            1 <1>                0.0176
      3 CAC        -31.6944   6.6840   7.8696 C.3            1 <1>               -0.0467
      4 CAD        -34.0124   7.4092   7.1973 C.3            1 <1>               -0.0098
      5 CAE        -34.4866   5.9813   7.3874 C.ar           1 <1>               -0.0454
      6 CAF        -34.2599   5.0122   6.4128 C.ar           1 <1>               -0.0551
      7 CAG        -34.7081   3.7107   6.5991 C.ar           1 <1>               -0.0199
      8 CAH        -35.3998   3.3723   7.7581 C.ar           1 <1>                0.1169
      9 CAJ        -35.6378   4.3385   8.7282 C.ar           1 <1>               -0.0199
     10 CAK        -35.1890   5.6400   8.5397 C.ar           1 <1>               -0.0551
     11 CAM        -30.7255   9.2540   6.8236 C.3            1 <1>                0.0266
     12 CAN        -30.5332  10.7651   6.8574 C.3            1 <1>                0.0927
     13 CAP        -29.1932  11.0747   6.3081 C.ar           1 <1>               -0.0143
     14 CAQ        -28.1352  10.1864   6.4607 C.ar           1 <1>               -0.0524
     15 CAR        -26.8869  10.5020   5.9342 C.ar           1 <1>               -0.0162
     16 CAS        -26.6980  11.6985   5.2510 C.ar           1 <1>                0.1582
     17 CAU        -27.7537  12.5785   5.0945 C.ar           1 <1>                0.1586
     18 CAW        -29.0011  12.2675   5.6212 C.ar           1 <1>               -0.0109
     19 NAL        -32.1120   8.9045   7.0671 N.3            1 <1>               -0.3080
     20 OAI        -35.8417   2.0970   7.9416 O.3            1 <1>               -0.5068
     21 OAO        -31.5708  11.4077   6.1083 O.3            1 <1>               -0.3859
     22 OAT        -25.4747  12.0064   4.7334 O.3            1 <1>               -0.5033
     23 OAV        -27.5721  13.7506   4.4256 O.3            1 <1>               -0.5033
     24 HAA1       -32.7933   7.7378   4.7768 H              1 <1>                0.0247
     25 HAA2       -31.1404   7.2925   5.2620 H              1 <1>                0.0247
     26 HAA3       -32.4386   6.0773   5.3092 H              1 <1>                0.0247
     27 HAC1       -31.9301   6.9758   8.8926 H              1 <1>                0.0247
     28 HAC2       -31.9315   5.6297   7.7293 H              1 <1>                0.0247
     29 HAC3       -30.6332   6.8450   7.6822 H              1 <1>                0.0247
     30 HAD1       -34.5783   7.8737   6.3903 H              1 <1>                0.0331
     31 HAD2       -34.2492   7.9905   8.0884 H              1 <1>                0.0331
     32 HAF        -33.7333   5.2710   5.5062 H              1 <1>                0.0621
     33 HAG        -34.5200   2.9613   5.8439 H              1 <1>                0.0654
     34 HAJ        -36.1725   4.0783   9.6300 H              1 <1>                0.0654
     35 HAK        -35.3871   6.3882   9.2924 H              1 <1>                0.0621
     36 HAM1       -30.0952   8.7904   7.5832 H              1 <1>                0.0453
     37 HAM2       -30.4202   8.8716   5.8501 H              1 <1>                0.0453
     38 HAN        -30.5801  11.1058   7.8913 H              1 <1>                0.0656
     39 HAQ        -28.2839   9.2553   6.9863 H              1 <1>                0.0622
     40 HAR        -26.0605   9.8169   6.0553 H              1 <1>                0.0655
     41 HAW        -29.8232  12.9562   5.4955 H              1 <1>                0.0659
     42 HNAL       -32.6401   9.4898   6.4357 H              1 <1>                0.1225
     43 HOAI       -35.1000   1.4899   7.8893 H              1 <1>                0.2921
     44 HOAO       -32.4161  11.0047   6.3204 H              1 <1>                0.2103
     45 HOAT       -24.9644  12.4925   5.3852 H              1 <1>                0.2923
     46 HOAV       -28.3063  13.8932   3.8240 H              1 <1>                0.2923
     47 ****       -32.2778   9.0471   8.0429 LP             1 <1>                0.0000
     48 ****       -36.5086   1.8702   7.2318 LP             1 <1>                0.0000
     49 ****       -36.2727   2.0199   8.8407 LP             1 <1>                0.0000
     50 ****       -31.3886  11.3047   5.1305 LP             1 <1>                0.0000
     51 ****       -31.5972  12.3797   6.3418 LP             1 <1>                0.0000
     52 ****       -25.5912  12.5684   3.9145 LP             1 <1>                0.0000
     53 ****       -24.9926  11.1638   4.4935 LP             1 <1>                0.0000
     54 ****       -26.7187  13.7089   3.9059 LP             1 <1>                0.0000
     55 ****       -27.5268  14.5047   5.0808 LP             1 <1>                0.0000
@<TRIPOS>BOND
    1    1    2 1     
    2    1   24 1     
    3    1   25 1     
    4    1   26 1     
    5    2    3 1     
    6    2    4 1     
    7    2   19 1     
    8    3   27 1     
    9    3   28 1     
   10    3   29 1     
   11    4    5 1     
   12    4   30 1     
   13    4   31 1     
   14    5    6 ar    
   15    5   10 ar    
   16    6    7 ar    
   17    6   32 1     
   18    7    8 ar    
   19    7   33 1     
   20    8    9 ar    
   21    8   20 1     
   22    9   10 ar    
   23    9   34 1     
   24   10   35 1     
   25   11   12 1     
   26   11   19 1     
   27   11   36 1     
   28   11   37 1     
   29   12   13 1     
   30   12   21 1     
   31   12   38 1     
   32   13   14 ar    
   33   13   18 ar    
   34   14   15 ar    
   35   14   39 1     
   36   15   16 ar    
   37   15   40 1     
   38   16   17 ar    
   39   16   22 1     
   40   17   18 ar    
   41   17   23 1     
   42   18   41 1     
   43   19   42 1     
   44   20   43 1     
   45   21   44 1     
   46   22   45 1     
   47   23   46 1     
   48   19   47 1     
   49   20   48 1     
   50   20   49 1     
   51   21   50 1     
   52   21   51 1     
   53   22   52 1     
   54   22   53 1     
   55   23   54 1     
   56   23   55 1     
@<TRIPOS>SUBSTRUCTURE
      1 ****           1
@<TRIPOS>SET
LONE_PAIRS      STATIC     ATOMS    <user>   **** ""
9 47 48 49 50 51 52 53 54 55
DONOR_HYDROGENS      STATIC     ATOMS    <user>   **** ""
5 42 43 44 45 46
ATOM$BLUE        STATIC     ATOMS    COLORGROUP SYSTEM
9 47 48 49 50 51 52 53 54 55
ATOM$RED        STATIC     ATOMS    COLORGROUP SYSTEM
5 42 43 44 45 46
@<TRIPOS>COMMENT
> <Gold.Version>
5.5

> <Gold.Id.Protein>
unknown|dok_beta2|pdb

> <Gold.Protein.RotatedTorsions>
[ 4175 4166 4165 4163 ] final  -87.43 input -179.98 | X-H torsion
[ 1294 1290 1288 1285 ] final  103.60 input -179.99 | X-H torsion
[ 4033 4024 4023 4021 ] final   87.84 input  179.98 | X-H torsion
[ 1412 1408 1406 1403 ] final  154.68 input -179.99 | X-H torsion
[ 2830 2825 2824 2821 ] final  157.28 input -179.98 | X-H torsion
[ 2723 2714 2713 2711 ] final -174.99 input -179.98 | X-H torsion
[ 2773 2768 2767 2764 ] final  -64.04 input  180.00 | X-H torsion

> <Gold.Protein.ActiveResidues>
 TRP109  THR110  ASP113  VAL114  VAL117  THR118  PHE193  TYR199  SER203  SER207 
 PHE208  TRP286  PHE289  PHE290  ASN293  TYR308  ASN312  TYR316 

> <Gold.Protein.RotatedAtoms>
  -34.8636    3.8484    1.0104 H   0  0  0  0  0  0  0  0  0  0  0  0  # atno 1294 bound_to 1290
  -27.5530   14.5389    1.7031 H   0  0  0  0  0  0  0  0  0  0  0  0  # atno 1412 bound_to 1408
  -26.8030    7.4883    2.8625 H   0  0  0  0  0  0  0  0  0  0  0  0  # atno 2723 bound_to 2714
  -24.2121   10.5712    3.8489 H   0  0  0  0  0  0  0  0  0  0  0  0  # atno 2773 bound_to 2768
  -24.6455   12.7855    2.9890 H   0  0  0  0  0  0  0  0  0  0  0  0  # atno 2830 bound_to 2825
  -29.1740    6.8803   11.0351 H   0  0  0  0  0  0  0  0  0  0  0  0  # atno 4033 bound_to 4024
  -36.3645    8.5709    8.4869 H   0  0  0  0  0  0  0  0  0  0  0  0  # atno 4175 bound_to 4166
  -36.6078    9.3592    7.1157 LP  0  0  0  0  0  0  0  0  0  0  0  0  # atno 4597 bound_to 4166
  -37.8022    8.4737    7.7910 LP  0  0  0  0  0  0  0  0  0  0  0  0  # atno 4598 bound_to 4166
  -35.2287    4.7774    2.2615 LP  0  0  0  0  0  0  0  0  0  0  0  0  # atno 4603 bound_to 1290
  -33.8783    3.8592    2.2716 LP  0  0  0  0  0  0  0  0  0  0  0  0  # atno 4604 bound_to 1290
  -28.7603    5.3787   10.6658 LP  0  0  0  0  0  0  0  0  0  0  0  0  # atno 4607 bound_to 4024
  -27.7597    6.3271   11.5410 LP  0  0  0  0  0  0  0  0  0  0  0  0  # atno 4608 bound_to 4024
  -28.2000   14.9181    3.1169 LP  0  0  0  0  0  0  0  0  0  0  0  0  # atno 4611 bound_to 1408
  -26.6029   15.1280    2.8484 LP  0  0  0  0  0  0  0  0  0  0  0  0  # atno 4612 bound_to 1408
  -23.2521   13.4995    2.6593 LP  0  0  0  0  0  0  0  0  0  0  0  0  # atno 4613 bound_to 2825
  -24.6438   14.0444    2.0014 LP  0  0  0  0  0  0  0  0  0  0  0  0  # atno 4614 bound_to 2825

> <Gold.Score>
     Score     S(PLP)   S(hbond)     S(cho)   S(metal)  DE(clash)   DE(tors)     intcor
     73.91     -66.54       2.99       0.00       0.00       0.00       1.03       0.47

> <Gold.PLP.Fitness>
73.9145

> <Gold.PLP.PLP>
-66.5362

> <Gold.PLP.part.hbond>
-6.1533

> <Gold.PLP.part.metal>
0.0000

> <Gold.PLP.part.buried>
-3.7952

> <Gold.PLP.part.nonpolar>
-57.7318

> <Gold.PLP.part.repulsive>
0.0000

> <Gold.PLP.ligand.clash>
0.0000

> <Gold.PLP.ligand.torsion>
1.0311

> <Gold.PLP.Chemscore.Hbond>
2.9903

> <Gold.PLP.Chemscore.CHOScore>
0.0000

> <Gold.PLP.Chemscore.Metal>
0.0000

> <Gold.Chemscore.Hbonds>
donor molecule, donor type, donor heavy atom, donor atom, acceptor molecule, acceptor atom, score
      L1  H    21    44       P1  1334  0.71
      L1  H    23    46       P1  1343  0.67
      P1  H  2825  2830       L1    22  0.62
      P1  H  2768  2773       L1    22  0.99

> <Gold.PLP.Chemscore.Internal.Correction>
0.4696

