#       Name:                plp ligand
#       Creating user name   student
#       Creation time:       Mon Apr 08 14:22:25 2019


#       File generated by GOLD software.
#

@<TRIPOS>MOLECULE
plp ligand
    55    56     1
SMALL
GASTEIGER


@<TRIPOS>ATOM
      1 CAA         -1.3232  -0.9079  -1.4699 NONPOLAR       1 <1>               -0.0467
      2 CAB         -1.1192  -0.7199   0.0301 NONPOLAR       1 <1>                0.0176
      3 CAC          0.1398  -1.4459   0.4881 NONPOLAR       1 <1>               -0.0467
      4 CAD         -2.3432  -1.1789   0.8261 NONPOLAR       1 <1>               -0.0098
      5 CAE         -2.3672  -2.6709   1.0971 NONPOLAR       1 <1>               -0.0454
      6 CAF         -2.6502  -3.5819   0.0821 NONPOLAR       1 <1>               -0.0551
      7 CAG         -2.6762  -4.9449   0.3491 NONPOLAR       1 <1>               -0.0199
      8 CAH         -2.4322  -5.4059   1.6391 NONPOLAR       1 <1>                0.1169
      9 CAJ         -2.1602  -4.4999   2.6571 NONPOLAR       1 <1>               -0.0199
     10 CAK         -2.1352  -3.1369   2.3881 NONPOLAR       1 <1>               -0.0551
     11 CAM          0.2018   1.3501  -0.3879 NONPOLAR       1 <1>                0.0266
     12 CAN          0.5198   2.6791   0.2861 NONPOLAR       1 <1>                0.0927
     13 CAP          1.6648   3.2961  -0.4219 NONPOLAR       1 <1>               -0.0143
     14 CAQ          1.6638   4.6491  -0.7399 NONPOLAR       1 <1>               -0.0524
     15 CAR          2.7528   5.2031  -1.4049 NONPOLAR       1 <1>               -0.0162
     16 CAS          3.8428   4.4091  -1.7449 NONPOLAR       1 <1>                0.1582
     17 CAU          3.8448   3.0641  -1.4219 NONPOLAR       1 <1>                0.1586
     18 CAW          2.7578   2.5071  -0.7599 NONPOLAR       1 <1>               -0.0109
     19 NAL         -0.9162   0.6951   0.2641 DONACC         1 <1>               -0.3080
     20 OAI         -2.4592  -6.7419   1.9031 DONACC         1 <1>               -0.5068
     21 OAO         -0.6332   3.5281   0.2631 DONACC         1 <1>               -0.3859
     22 OAT          4.9108   4.9531  -2.3949 DONACC         1 <1>               -0.5033
     23 OAV          4.9108   2.2841  -1.7529 DONACC         1 <1>               -0.5033
     24 HAA1        -2.2262  -0.3839  -1.7829 0ÿj_          1 <1>                0.0247
     25 HAA2        -0.4652  -0.5049  -2.0069 0ÿj_          1 <1>                0.0247
     26 HAA3        -1.4242  -1.9699  -1.6929 0ÿj_          1 <1>                0.0247
     27 HAC1         0.2728  -1.3029   1.5601 0ÿj_          1 <1>                0.0247
     28 HAC2         0.0448  -2.5099   0.2731 0ÿj_          1 <1>                0.0247
     29 HAC3         1.0038  -1.0449  -0.0409 0ÿj_          1 <1>                0.0247
     30 HAD1        -3.2492  -0.8939   0.2921 0ÿj_          1 <1>                0.0331
     31 HAD2        -2.3832  -0.6389   1.7721 0ÿj_          1 <1>                0.0331
     32 HAF         -2.8512  -3.2299  -0.9189 0ÿj_          1 <1>                0.0621
     33 HAG         -2.8862  -5.6469  -0.4449 0ÿj_          1 <1>                0.0654
     34 HAJ         -1.9682  -4.8549   3.6591 0ÿj_          1 <1>                0.0654
     35 HAK         -1.9342  -2.4379   3.1861 0ÿj_          1 <1>                0.0621
     36 HAM1         1.0778   0.7021  -0.3449 0ÿj_          1 <1>                0.0453
     37 HAM2        -0.0402   1.5241  -1.4359 0ÿj_          1 <1>                0.0453
     38 HAN          0.8018   2.4931   1.3221 0ÿj_          1 <1>                0.0656
     39 HAQ          0.8198   5.2661  -0.4709 0ÿj_          1 <1>                0.0622
     40 HAR          2.7538   6.2531  -1.6589 0ÿj_          1 <1>                0.0655
     41 HAW          2.7638   1.4571  -0.5079 0ÿj_          1 <1>                0.0659
     42 HNAL        -1.7302   1.2081  -0.0429 0ÿj_          1 <1>                0.1225
     43 HOAI        -2.2722  -6.8889   2.8331 0ÿj_          1 <1>                0.2921
     44 HOAO        -0.4252   4.3631   0.6891 0ÿj_          1 <1>                0.2103
     45 HOAT         5.5698   4.2731  -2.5529 0ÿj_          1 <1>                0.2923
     46 HOAV         4.7528   1.3841  -1.4589 0ÿj_          1 <1>                0.2923
     47 ****        -0.7280   0.7137   1.2460 0ÿj_          1 <1>                0.0000
     48 ****        -1.7691  -7.2053   1.3472 0ÿj_          1 <1>                0.0000
     49 ****        -3.3640  -7.1066   1.6835 0ÿj_          1 <1>                0.0000
     50 ****        -1.3843   3.0832   0.7509 0ÿj_          1 <1>                0.0000
     51 ****        -0.9044   3.6961  -0.6847 0ÿj_          1 <1>                0.0000
     52 ****         5.3086   5.6786  -1.8333 0ÿj_          1 <1>                0.0000
     53 ****         4.6099   5.3351  -3.2687 0ÿj_          1 <1>                0.0000
     54 ****         5.7340   2.6396  -1.3103 0ÿj_          1 <1>                0.0000
     55 ****         5.0353   2.2936  -2.7451 0ÿj_          1 <1>                0.0000
@<TRIPOS>BOND
    1    1    2 1     
    2    1   24 1     
    3    1   25 1     
    4    1   26 1     
    5    2    3 1     
    6    2    4 1     
    7    2   19 1     
    8    3   27 1     
    9    3   28 1     
   10    3   29 1     
   11    4    5 1     
   12    4   30 1     
   13    4   31 1     
   14    5    6 ar    
   15    5   10 ar    
   16    6    7 ar    
   17    6   32 1     
   18    7    8 ar    
   19    7   33 1     
   20    8    9 ar    
   21    8   20 1     
   22    9   10 ar    
   23    9   34 1     
   24   10   35 1     
   25   11   12 1     
   26   11   19 1     
   27   11   36 1     
   28   11   37 1     
   29   12   13 1     
   30   12   21 1     
   31   12   38 1     
   32   13   14 ar    
   33   13   18 ar    
   34   14   15 ar    
   35   14   39 1     
   36   15   16 ar    
   37   15   40 1     
   38   16   17 ar    
   39   16   22 1     
   40   17   18 ar    
   41   17   23 1     
   42   18   41 1     
   43   19   42 1     
   44   20   43 1     
   45   21   44 1     
   46   22   45 1     
   47   23   46 1     
   48   19   47 1     
   49   20   48 1     
   50   20   49 1     
   51   21   50 1     
   52   21   51 1     
   53   22   52 1     
   54   22   53 1     
   55   23   54 1     
   56   23   55 1     
@<TRIPOS>SUBSTRUCTURE
      1 ****           1
@<TRIPOS>SET
LONE_PAIRS      STATIC     ATOMS    <user>   **** ""
9 47 48 49 50 51 52 53 54 55
DONOR_HYDROGENS      STATIC     ATOMS    <user>   **** ""
5 42 43 44 45 46
ATOM$BLUE        STATIC     ATOMS    COLORGROUP SYSTEM
9 47 48 49 50 51 52 53 54 55
ATOM$RED        STATIC     ATOMS    COLORGROUP SYSTEM
5 42 43 44 45 46
