#       Name:                C:\Users\porto\OneDrive\projekt\beta1\ligandy\L_5a8e.pdb L_5a8e.pdb 1
#       Creating user name   student
#       Creation time:       Mon Apr 08 16:17:19 2019


#       File generated by GOLD software.
#

@<TRIPOS>MOLECULE
C:\Users\porto\OneDrive\projekt\beta1\ligandy\L_5a8e.pdb L_5a8e.pdb 1|5a8e|mol2|1|dock3
    51    52     1
SMALL
GASTEIGER


@<TRIPOS>ATOM
      1 C1         -23.6602  10.2613  22.5934 C.ar           1 <1>                0.1185
      2 N1         -24.1476  11.4854  22.3114 N.pl3          1 <1>               -0.3459
      3 O1         -23.0875   9.1027  18.3672 O.3            1 <1>               -0.4887
      4 C2         -23.3220   9.5094  21.4820 C.ar           1 <1>               -0.0151
      5 N2         -22.7163   5.4901  15.1201 N.3            1 <1>               -0.3088
      6 O2         -23.4875   6.4613  17.7958 O.3            1 <1>               -0.3872
      7 C3         -23.6524  10.3682  20.3902 C.ar           1 <1>                0.0428
      8 N3         -23.3042   9.4866  24.9465 N.1            1 <1>               -0.1893
      9 C4         -23.5723  10.2660  18.9054 C.ar           1 <1>                0.1298
     10 C5         -24.0009  11.3426  18.1082 C.ar           1 <1>               -0.0190
     11 C6         -24.4996  12.5219  18.6619 C.ar           1 <1>               -0.0534
     12 C7         -24.6025  12.6988  20.0371 C.ar           1 <1>               -0.0263
     13 C8         -24.1836  11.6209  20.9647 C.ar           1 <1>                0.0539
     14 C9         -23.3250   8.6998  17.0181 C.3            1 <1>                0.1166
     15 C10        -22.8543   7.2755  16.8056 C.3            1 <1>                0.1015
     16 C11        -23.1970   6.8328  15.3812 C.3            1 <1>                0.0256
     17 C12        -23.5892   4.4215  14.6472 C.3            1 <1>                0.0108
     18 C13        -24.4851   4.9743  13.5389 C.3            1 <1>               -0.0473
     19 C14        -24.4941   3.9677  15.7958 C.3            1 <1>               -0.0473
     20 C15        -22.7100   3.2713  14.1398 C.3            1 <1>               -0.0473
     21 C16        -23.4794   9.8213  23.8432 C.1            1 <1>                0.1171
     22 C17        -25.1266  13.9759  20.6108 C.3            1 <1>               -0.0377
     23 HN1        -24.4085  12.1101  23.0603 H              1 <1>                0.1665
     24 H2         -22.9134   8.5176  21.6049 H              1 <1>                0.0653
     25 HN2        -22.3096   5.2259  16.0070 H              1 <1>                0.1225
     26 HO2        -24.2041   6.9517  18.2038 H              1 <1>                0.2100
     27 H5         -23.9498  11.2709  17.0315 H              1 <1>                0.0654
     28 H6         -24.8183  13.3284  18.0176 H              1 <1>                0.0622
     29 H91        -22.7884   9.3642  16.3415 H              1 <1>                0.0723
     30 H92        -24.3911   8.7660  16.8023 H              1 <1>                0.0723
     31 H10        -21.7735   7.2315  16.9435 H              1 <1>                0.0640
     32 H111       -24.2773   6.8655  15.2415 H              1 <1>                0.0451
     33 H112       -22.7475   7.5245  14.6686 H              1 <1>                0.0451
     34 H131       -25.1438   4.1855  13.1755 H              1 <1>                0.0247
     35 H132       -25.0850   5.7949  13.9315 H              1 <1>                0.0247
     36 H133       -23.8670   5.3372  12.7181 H              1 <1>                0.0247
     37 H141       -25.1493   3.1681  15.4493 H              1 <1>                0.0247
     38 H142       -23.8809   3.6018  16.6196 H              1 <1>                0.0247
     39 H143       -25.0975   4.8087  16.1373 H              1 <1>                0.0247
     40 H151       -23.3441   2.4599  13.7810 H              1 <1>                0.0247
     41 H152       -22.0799   3.6269  13.3246 H              1 <1>                0.0247
     42 H153       -22.0811   2.9074  14.9527 H              1 <1>                0.0247
     43 H171       -25.1269  13.9125  21.6994 H              1 <1>                0.0278
     44 H172       -24.4921  14.8035  20.2951 H              1 <1>                0.0278
     45 H173       -26.1436  14.1432  20.2566 H              1 <1>                0.0278
     46 ****       -22.0936   9.1483  18.4679 LP             1 <1>                0.0000
     47 ****       -23.4471   8.3659  18.9398 LP             1 <1>                0.0000
     48 ****       -22.1337   5.5652  14.3108 LP             1 <1>                0.0000
     49 ****       -22.8189   6.2056  18.4942 LP             1 <1>                0.0000
     50 ****       -23.8517   5.6356  17.3650 LP             1 <1>                0.0000
     51 ****       -23.1539   9.1995  25.8925 LP             1 <1>                0.0000
@<TRIPOS>BOND
    1    1    2 ar    
    2    1    4 ar    
    3    1   21 1     
    4    2   13 ar    
    5    2   23 1     
    6    3   14 1     
    7    3    9 1     
    8    4    7 ar    
    9    4   24 1     
   10    5   17 1     
   11    5   16 1     
   12    5   25 1     
   13    6   15 1     
   14    6   26 1     
   15    7    9 ar    
   16    7   13 ar    
   17    8   21 3     
   18    9   10 ar    
   19   10   11 ar    
   20   10   27 1     
   21   11   12 ar    
   22   11   28 1     
   23   12   22 1     
   24   12   13 ar    
   25   14   15 1     
   26   14   29 1     
   27   14   30 1     
   28   15   16 1     
   29   15   31 1     
   30   16   32 1     
   31   16   33 1     
   32   17   18 1     
   33   17   19 1     
   34   17   20 1     
   35   18   34 1     
   36   18   35 1     
   37   18   36 1     
   38   19   37 1     
   39   19   38 1     
   40   19   39 1     
   41   20   40 1     
   42   20   41 1     
   43   20   42 1     
   44   22   43 1     
   45   22   44 1     
   46   22   45 1     
   47    3   46 1     
   48    3   47 1     
   49    5   48 1     
   50    6   49 1     
   51    6   50 1     
   52    8   51 1     
@<TRIPOS>SUBSTRUCTURE
      1 ****           1
@<TRIPOS>SET
LONE_PAIRS      STATIC     ATOMS    <user>   **** ""
6 46 47 48 49 50 51
DONOR_HYDROGENS      STATIC     ATOMS    <user>   **** ""
3 23 25 26
ATOM$BLUE        STATIC     ATOMS    COLORGROUP SYSTEM
6 46 47 48 49 50 51
ATOM$RED        STATIC     ATOMS    COLORGROUP SYSTEM
3 23 25 26
@<TRIPOS>COMMENT
> <Gold.Version>
5.5

> <Gold.Id.Protein>
unknown|bialko_beta1|pdb

> <Gold.Protein.ActiveResidues>
 ALA86   ASP87   VAL90   VAL94   VAL95   GLY98   ALA99   LEU101  VAL102  CYS114 
 GLU115  TRP117  THR118  SER119  LEU120  ASP121  VAL122  CYS124  VAL125  THR126 
 SER128  SER173  PHE174  ILE177  CYS199  ASP200  PHE201  TYR207  SER215  PHE299 
 TRP303  PHE306  PHE307  ASN310  PHE325  VAL326  ASN329  TRP330  GLY332  TYR333 
 SER336 

> <Gold.Score>
     Score     S(PLP)   S(hbond)     S(cho)   S(metal)  DE(clash)   DE(tors)     intcor
     61.70     -60.21       1.00       0.00       0.00       0.00       0.83       0.15

> <Gold.PLP.Fitness>
61.6989

> <Gold.PLP.PLP>
-60.2119

> <Gold.PLP.part.hbond>
-2.2305

> <Gold.PLP.part.metal>
0.0000

> <Gold.PLP.part.buried>
-6.9282

> <Gold.PLP.part.nonpolar>
-51.7901

> <Gold.PLP.part.repulsive>
0.4280

> <Gold.PLP.ligand.clash>
0.0000

> <Gold.PLP.ligand.torsion>
0.8331

> <Gold.PLP.Chemscore.Hbond>
1.0000

> <Gold.PLP.Chemscore.CHOScore>
0.0000

> <Gold.PLP.Chemscore.Metal>
0.0000

> <Gold.Chemscore.Hbonds>
donor molecule, donor type, donor heavy atom, donor atom, acceptor molecule, acceptor atom, score
      L1  H     6    26       P1  2066  1.00

> <Gold.PLP.Chemscore.Internal.Correction>
0.1531

