#       Name:                C:\Users\porto\OneDrive\projekt\beta2\ligandy\L_4ldo.pdb L_4ldo.pdb 1
#       Creating user name   student
#       Creation time:       Mon Apr 08 15:46:10 2019


#       File generated by GOLD software.
#

@<TRIPOS>MOLECULE
C:\Users\porto\OneDrive\projekt\beta2\ligandy\L_4ldo.pdb L_4ldo.pdb 1|4ldo|mol2|1|dock1
    33    33     1
SMALL
GASTEIGER


@<TRIPOS>ATOM
      1 C1         -30.7180  10.5588   7.2916 C.ar           1 <1>               -0.0143
      2 N1         -33.4176   8.1014   7.7994 N.3            1 <1>               -0.3162
      3 O1         -27.1831   9.9292   6.5583 O.3            1 <1>               -0.5033
      4 C2         -29.4885   9.9065   7.2691 C.ar           1 <1>               -0.0109
      5 O2         -27.4596  12.2577   5.3991 O.3            1 <1>               -0.5033
      6 C3         -28.4134  10.5063   6.6230 C.ar           1 <1>                0.1586
      7 O3         -32.8705  10.9028   8.0742 O.3            1 <1>               -0.3859
      8 C4         -28.5608  11.7409   6.0089 C.ar           1 <1>                0.1582
      9 C5         -29.7845  12.3985   6.0285 C.ar           1 <1>               -0.0162
     10 C6         -30.8627  11.7987   6.6737 C.ar           1 <1>               -0.0524
     11 C7         -31.7993   9.9649   7.9364 C.3            1 <1>                0.0927
     12 C8         -32.2775   8.7509   7.1373 C.3            1 <1>                0.0258
     13 C9         -33.8486   6.9389   7.0113 C.3            1 <1>               -0.0157
     14 HN1        -33.1426   7.7972   8.7222 H              1 <1>                0.1217
     15 HO1        -26.5860  10.5018   6.0718 H              1 <1>                0.2923
     16 H2         -29.3783   8.9459   7.7499 H              1 <1>                0.0659
     17 HO2        -27.6773  13.1082   5.0108 H              1 <1>                0.2923
     18 HO3        -33.6099  10.4820   8.5201 H              1 <1>                0.2103
     19 H5         -29.8888  13.3603   5.5474 H              1 <1>                0.0655
     20 H6         -31.8169  12.3033   6.6921 H              1 <1>                0.0622
     21 H7         -31.4853   9.6370   8.9267 H              1 <1>                0.0656
     22 H81        -32.5718   9.0680   6.1371 H              1 <1>                0.0453
     23 H82        -31.4599   8.0370   7.0387 H              1 <1>                0.0453
     24 H91        -34.6943   6.4582   7.5039 H              1 <1>                0.0388
     25 H92        -34.1469   7.2656   6.0151 H              1 <1>                0.0388
     26 H93        -33.0252   6.2289   6.9299 H              1 <1>                0.0388
     27 ****       -34.1730   8.7525   7.8727 LP             1 <1>                0.0000
     28 ****       -27.2528   9.0472   6.0921 LP             1 <1>                0.0000
     29 ****       -26.8312   9.7900   7.4839 LP             1 <1>                0.0000
     30 ****       -27.1521  11.6328   4.6814 LP             1 <1>                0.0000
     31 ****       -26.7302  12.3760   6.0729 LP             1 <1>                0.0000
     32 ****       -33.1602  11.2131   7.1687 LP             1 <1>                0.0000
     33 ****       -32.5598  11.6868   8.6116 LP             1 <1>                0.0000
@<TRIPOS>BOND
    1    1    4 ar    
    2    1   10 ar    
    3    1   11 1     
    4    2   12 1     
    5    2   13 1     
    6    2   14 1     
    7    3    6 1     
    8    3   15 1     
    9    4    6 ar    
   10    4   16 1     
   11    5    8 1     
   12    5   17 1     
   13    6    8 ar    
   14    7   11 1     
   15    7   18 1     
   16    8    9 ar    
   17    9   10 ar    
   18    9   19 1     
   19   10   20 1     
   20   11   12 1     
   21   11   21 1     
   22   12   22 1     
   23   12   23 1     
   24   13   24 1     
   25   13   25 1     
   26   13   26 1     
   27    2   27 1     
   28    3   28 1     
   29    3   29 1     
   30    5   30 1     
   31    5   31 1     
   32    7   32 1     
   33    7   33 1     
@<TRIPOS>SUBSTRUCTURE
      1 ****           1
@<TRIPOS>SET
LONE_PAIRS      STATIC     ATOMS    <user>   **** ""
7 27 28 29 30 31 32 33
DONOR_HYDROGENS      STATIC     ATOMS    <user>   **** ""
4 14 15 17 18
ATOM$BLUE        STATIC     ATOMS    COLORGROUP SYSTEM
7 27 28 29 30 31 32 33
ATOM$RED        STATIC     ATOMS    COLORGROUP SYSTEM
4 14 15 17 18
@<TRIPOS>COMMENT
> <Gold.Version>
5.5

> <Gold.Id.Protein>
unknown|dok_beta2|pdb

> <Gold.Protein.RotatedTorsions>
[ 4175 4166 4165 4163 ] final  -14.65 input -179.98 | X-H torsion
[ 1294 1290 1288 1285 ] final  -40.04 input -179.99 | X-H torsion
[ 4033 4024 4023 4021 ] final -120.97 input  179.98 | X-H torsion
[ 1412 1408 1406 1403 ] final  104.71 input -179.99 | X-H torsion
[ 2830 2825 2824 2821 ] final -106.63 input -179.98 | X-H torsion
[ 2723 2714 2713 2711 ] final -174.26 input -179.98 | X-H torsion
[ 2773 2768 2767 2764 ] final -154.39 input  180.00 | X-H torsion

> <Gold.Protein.ActiveResidues>
 TRP109  THR110  ASP113  VAL114  VAL117  THR118  PHE193  TYR199  SER203  SER207 
 PHE208  TRP286  PHE289  PHE290  ASN293  TYR308  ASN312  TYR316 

> <Gold.Protein.RotatedAtoms>
  -34.9315    4.7190    2.4917 H   0  0  0  0  0  0  0  0  0  0  0  0  # atno 1294 bound_to 1290
  -28.1956   14.5662    2.1162 H   0  0  0  0  0  0  0  0  0  0  0  0  # atno 1412 bound_to 1408
  -26.7972    7.4973    2.8668 H   0  0  0  0  0  0  0  0  0  0  0  0  # atno 2723 bound_to 2714
  -24.7360    9.5156    3.3403 H   0  0  0  0  0  0  0  0  0  0  0  0  # atno 2773 bound_to 2768
  -24.9061   13.8085    2.1551 H   0  0  0  0  0  0  0  0  0  0  0  0  # atno 2830 bound_to 2825
  -27.7860    5.8611   11.3666 H   0  0  0  0  0  0  0  0  0  0  0  0  # atno 4033 bound_to 4024
  -37.3873    8.2668    8.3689 H   0  0  0  0  0  0  0  0  0  0  0  0  # atno 4175 bound_to 4166
  -36.0168    9.0045    7.9970 LP  0  0  0  0  0  0  0  0  0  0  0  0  # atno 4597 bound_to 4166
  -37.3271    9.1453    7.0327 LP  0  0  0  0  0  0  0  0  0  0  0  0  # atno 4598 bound_to 4166
  -33.8631    3.6636    1.9387 LP  0  0  0  0  0  0  0  0  0  0  0  0  # atno 4603 bound_to 1290
  -35.1732    4.0658    1.0508 LP  0  0  0  0  0  0  0  0  0  0  0  0  # atno 4604 bound_to 1290
  -28.8041    7.0940   11.2916 LP  0  0  0  0  0  0  0  0  0  0  0  0  # atno 4607 bound_to 4024
  -29.1616    5.6734   10.5699 LP  0  0  0  0  0  0  0  0  0  0  0  0  # atno 4608 bound_to 4024
  -27.5124   15.1666    3.4330 LP  0  0  0  0  0  0  0  0  0  0  0  0  # atno 4611 bound_to 1408
  -26.6208   14.8510    2.1018 LP  0  0  0  0  0  0  0  0  0  0  0  0  # atno 4612 bound_to 1408
  -24.2965   12.6809    3.1128 LP  0  0  0  0  0  0  0  0  0  0  0  0  # atno 4613 bound_to 2825
  -23.3277   13.7964    2.4173 LP  0  0  0  0  0  0  0  0  0  0  0  0  # atno 4614 bound_to 2825

> <Gold.Score>
     Score     S(PLP)   S(hbond)     S(cho)   S(metal)  DE(clash)   DE(tors)     intcor
     43.00     -41.32       0.56       0.00       0.00       0.00       0.00       0.00

> <Gold.PLP.Fitness>
42.9962

> <Gold.PLP.PLP>
-41.3162

> <Gold.PLP.part.hbond>
-3.2408

> <Gold.PLP.part.metal>
0.0000

> <Gold.PLP.part.buried>
-5.7972

> <Gold.PLP.part.nonpolar>
-32.8327

> <Gold.PLP.part.repulsive>
0.0000

> <Gold.PLP.ligand.clash>
0.0000

> <Gold.PLP.ligand.torsion>
0.0000

> <Gold.PLP.Chemscore.Hbond>
0.5600

> <Gold.PLP.Chemscore.CHOScore>
0.0000

> <Gold.PLP.Chemscore.Metal>
0.0000

> <Gold.Chemscore.Hbonds>
donor molecule, donor type, donor heavy atom, donor atom, acceptor molecule, acceptor atom, score
      L1  H     2    14       P1  4098  0.56

> <Gold.PLP.Chemscore.Internal.Correction>
0.0000

