#       Name:                C:\Users\porto\OneDrive\projekt\beta2\ligandy\L_4ldl.pdb L_4ldl.pdb 1
#       Creating user name   student
#       Creation time:       Mon Apr 08 16:05:10 2019


#       File generated by GOLD software.
#

@<TRIPOS>MOLECULE
C:\Users\porto\OneDrive\projekt\beta2\ligandy\L_4ldl.pdb L_4ldl.pdb 1|4ldl|mol2|1|dock1
    55    56     1
SMALL
GASTEIGER


@<TRIPOS>ATOM
      1 CAA        -32.4791   7.1519   5.2558 C.3            1 <1>               -0.0467
      2 CAB        -32.6432   7.5099   6.7295 C.3            1 <1>                0.0176
      3 CAC        -31.7346   6.6402   7.5898 C.3            1 <1>               -0.0467
      4 CAD        -34.1026   7.3969   7.1766 C.3            1 <1>               -0.0098
      5 CAE        -34.5574   5.9693   7.4113 C.ar           1 <1>               -0.0454
      6 CAF        -34.3053   4.9706   6.4736 C.ar           1 <1>               -0.0551
      7 CAG        -34.7360   3.6695   6.7004 C.ar           1 <1>               -0.0199
      8 CAH        -35.4353   3.3609   7.8631 C.ar           1 <1>                0.1169
      9 CAJ        -35.6986   4.3564   8.7962 C.ar           1 <1>               -0.0199
     10 CAK        -35.2675   5.6574   8.5672 C.ar           1 <1>               -0.0551
     11 CAM        -30.9049   9.2612   6.3890 C.3            1 <1>                0.0266
     12 CAN        -30.5636  10.6915   6.7879 C.3            1 <1>                0.0927
     13 CAP        -29.2154  11.0100   6.2645 C.ar           1 <1>               -0.0143
     14 CAQ        -28.2412  10.0251   6.1517 C.ar           1 <1>               -0.0524
     15 CAR        -26.9830  10.3516   5.6562 C.ar           1 <1>               -0.0162
     16 CAS        -26.7013  11.6570   5.2678 C.ar           1 <1>                0.1582
     17 CAU        -27.6741  12.6345   5.3747 C.ar           1 <1>                0.1586
     18 CAW        -28.9309  12.3123   5.8713 C.ar           1 <1>               -0.0109
     19 NAL        -32.2125   8.8834   6.8906 N.3            1 <1>               -0.3080
     20 OAI        -35.8600   2.0861   8.0862 O.3            1 <1>               -0.5068
     21 OAO        -31.5532  11.5918   6.2770 O.3            1 <1>               -0.3859
     22 OAT        -25.4685  11.9760   4.7803 O.3            1 <1>               -0.5033
     23 OAV        -27.4015  13.9133   4.9946 O.3            1 <1>               -0.5033
     24 HAA1       -33.1341   7.7810   4.6533 H              1 <1>                0.0247
     25 HAA2       -31.4443   7.3131   4.9555 H              1 <1>                0.0247
     26 HAA3       -32.7415   6.1050   5.1044 H              1 <1>                0.0247
     27 HAC1       -31.8622   6.9068   8.6386 H              1 <1>                0.0247
     28 HAC2       -31.9940   5.5914   7.4480 H              1 <1>                0.0247
     29 HAC3       -30.6967   6.7995   7.2991 H              1 <1>                0.0247
     30 HAD1       -34.7461   7.8633   6.4311 H              1 <1>                0.0331
     31 HAD2       -34.2481   7.9772   8.0878 H              1 <1>                0.0331
     32 HAF        -33.7725   5.2059   5.5641 H              1 <1>                0.0621
     33 HAG        -34.5281   2.8974   5.9738 H              1 <1>                0.0654
     34 HAJ        -36.2394   4.1194   9.7008 H              1 <1>                0.0654
     35 HAK        -35.4852   6.4282   9.2913 H              1 <1>                0.0621
     36 HAM1       -30.1519   8.5824   6.7906 H              1 <1>                0.0453
     37 HAM2       -30.8940   9.1755   5.3029 H              1 <1>                0.0453
     38 HAN        -30.5479  10.7627   7.8751 H              1 <1>                0.0656
     39 HAQ        -28.4622   9.0109   6.4483 H              1 <1>                0.0622
     40 HAR        -26.2211   9.5904   5.5721 H              1 <1>                0.0655
     41 HAW        -29.6883  13.0777   5.9516 H              1 <1>                0.0659
     42 HNAL       -32.8582   9.4975   6.4152 H              1 <1>                0.1225
     43 HOAI       -36.4837   2.0789   8.8159 H              1 <1>                0.2921
     44 HOAO       -32.4069  11.1527   6.2579 H              1 <1>                0.2103
     45 HOAT       -24.9128  12.2916   5.4966 H              1 <1>                0.2923
     46 HOAV       -27.6074  14.0216   4.0633 H              1 <1>                0.2923
     47 ****       -32.1747   8.9691   7.8862 LP             1 <1>                0.0000
     48 ****       -35.0758   1.5085   8.3126 LP             1 <1>                0.0000
     49 ****       -36.3062   1.7347   7.2631 LP             1 <1>                0.0000
     50 ****       -31.3019  11.8722   5.3506 LP             1 <1>                0.0000
     51 ****       -31.6062  12.3979   6.8664 LP             1 <1>                0.0000
     52 ****       -25.5589  12.6922   4.0882 LP             1 <1>                0.0000
     53 ****       -25.0529  11.1651   4.3684 LP             1 <1>                0.0000
     54 ****       -26.4322  14.1066   5.1462 LP             1 <1>                0.0000
     55 ****       -27.9561  14.5467   5.5343 LP             1 <1>                0.0000
@<TRIPOS>BOND
    1    1    2 1     
    2    1   24 1     
    3    1   25 1     
    4    1   26 1     
    5    2    3 1     
    6    2    4 1     
    7    2   19 1     
    8    3   27 1     
    9    3   28 1     
   10    3   29 1     
   11    4    5 1     
   12    4   30 1     
   13    4   31 1     
   14    5    6 ar    
   15    5   10 ar    
   16    6    7 ar    
   17    6   32 1     
   18    7    8 ar    
   19    7   33 1     
   20    8    9 ar    
   21    8   20 1     
   22    9   10 ar    
   23    9   34 1     
   24   10   35 1     
   25   11   12 1     
   26   11   19 1     
   27   11   36 1     
   28   11   37 1     
   29   12   13 1     
   30   12   21 1     
   31   12   38 1     
   32   13   14 ar    
   33   13   18 ar    
   34   14   15 ar    
   35   14   39 1     
   36   15   16 ar    
   37   15   40 1     
   38   16   17 ar    
   39   16   22 1     
   40   17   18 ar    
   41   17   23 1     
   42   18   41 1     
   43   19   42 1     
   44   20   43 1     
   45   21   44 1     
   46   22   45 1     
   47   23   46 1     
   48   19   47 1     
   49   20   48 1     
   50   20   49 1     
   51   21   50 1     
   52   21   51 1     
   53   22   52 1     
   54   22   53 1     
   55   23   54 1     
   56   23   55 1     
@<TRIPOS>SUBSTRUCTURE
      1 ****           1
@<TRIPOS>SET
LONE_PAIRS      STATIC     ATOMS    <user>   **** ""
9 47 48 49 50 51 52 53 54 55
DONOR_HYDROGENS      STATIC     ATOMS    <user>   **** ""
5 42 43 44 45 46
ATOM$BLUE        STATIC     ATOMS    COLORGROUP SYSTEM
9 47 48 49 50 51 52 53 54 55
ATOM$RED        STATIC     ATOMS    COLORGROUP SYSTEM
5 42 43 44 45 46
@<TRIPOS>COMMENT
> <Gold.Version>
5.5

> <Gold.Id.Protein>
unknown|dok_beta2|pdb

> <Gold.Protein.RotatedTorsions>
[ 4175 4166 4165 4163 ] final  132.28 input -179.98 | X-H torsion
[ 1294 1290 1288 1285 ] final  -20.54 input -179.99 | X-H torsion
[ 4033 4024 4023 4021 ] final  -49.03 input  179.98 | X-H torsion
[ 1412 1408 1406 1403 ] final -155.78 input -179.99 | X-H torsion
[ 2830 2825 2824 2821 ] final  150.03 input -179.98 | X-H torsion
[ 2723 2714 2713 2711 ] final   43.47 input -179.98 | X-H torsion
[ 2773 2768 2767 2764 ] final  -69.07 input  180.00 | X-H torsion

> <Gold.Protein.ActiveResidues>
 TRP109  THR110  ASP113  VAL114  VAL117  THR118  PHE193  TYR199  SER203  SER207 
 PHE208  TRP286  PHE289  PHE290  ASN293  TYR308  ASN312  TYR316 

> <Gold.Protein.RotatedAtoms>
  -35.1581    4.7616    2.2896 H   0  0  0  0  0  0  0  0  0  0  0  0  # atno 1294 bound_to 1290
  -26.8452   14.7419    1.8842 H   0  0  0  0  0  0  0  0  0  0  0  0  # atno 1412 bound_to 1408
  -26.5276    7.4235    1.1773 H   0  0  0  0  0  0  0  0  0  0  0  0  # atno 2723 bound_to 2714
  -24.2588   10.5118    3.8731 H   0  0  0  0  0  0  0  0  0  0  0  0  # atno 2773 bound_to 2768
  -24.5446   12.7526    3.0316 H   0  0  0  0  0  0  0  0  0  0  0  0  # atno 2830 bound_to 2825
  -28.5200    5.3476   10.7935 H   0  0  0  0  0  0  0  0  0  0  0  0  # atno 4033 bound_to 4024
  -36.9235    9.2977    7.0533 H   0  0  0  0  0  0  0  0  0  0  0  0  # atno 4175 bound_to 4166
  -37.6930    8.3318    8.0709 LP  0  0  0  0  0  0  0  0  0  0  0  0  # atno 4597 bound_to 4166
  -36.1342    8.7434    8.3303 LP  0  0  0  0  0  0  0  0  0  0  0  0  # atno 4598 bound_to 4166
  -33.8658    3.8203    2.2170 LP  0  0  0  0  0  0  0  0  0  0  0  0  # atno 4603 bound_to 1290
  -34.9344    3.8647    0.9830 LP  0  0  0  0  0  0  0  0  0  0  0  0  # atno 4604 bound_to 1290
  -27.8671    6.5789   11.5807 LP  0  0  0  0  0  0  0  0  0  0  0  0  # atno 4607 bound_to 4024
  -29.3340    6.7233   10.8778 LP  0  0  0  0  0  0  0  0  0  0  0  0  # atno 4608 bound_to 4024
  -28.3557   14.6253    2.3998 LP  0  0  0  0  0  0  0  0  0  0  0  0  # atno 4611 bound_to 1408
  -27.1847   15.2093    3.3767 LP  0  0  0  0  0  0  0  0  0  0  0  0  # atno 4612 bound_to 1408
  -23.2582   13.5933    2.5859 LP  0  0  0  0  0  0  0  0  0  0  0  0  # atno 4613 bound_to 2825
  -24.7430   13.9849    2.0304 LP  0  0  0  0  0  0  0  0  0  0  0  0  # atno 4614 bound_to 2825

> <Gold.Score>
     Score     S(PLP)   S(hbond)     S(cho)   S(metal)  DE(clash)   DE(tors)     intcor
     74.73     -65.65       3.52       0.00       0.00       0.02       1.20       0.96

> <Gold.PLP.Fitness>
74.7341

> <Gold.PLP.PLP>
-65.6465

> <Gold.PLP.part.hbond>
-6.0000

> <Gold.PLP.part.metal>
0.0000

> <Gold.PLP.part.buried>
-3.5253

> <Gold.PLP.part.nonpolar>
-57.1453

> <Gold.PLP.part.repulsive>
0.0000

> <Gold.PLP.ligand.clash>
0.0181

> <Gold.PLP.ligand.torsion>
1.2029

> <Gold.PLP.Chemscore.Hbond>
3.5182

> <Gold.PLP.Chemscore.CHOScore>
0.0000

> <Gold.PLP.Chemscore.Metal>
0.0000

> <Gold.Chemscore.Hbonds>
donor molecule, donor type, donor heavy atom, donor atom, acceptor molecule, acceptor atom, score
      L1  H    19    42       P1  1334  0.01
      L1  H    21    44       P1  1334  0.95
      L1  H    23    46       P1  1408  0.96
      P1  H  2825  2830       L1    22  0.60
      P1  H  2768  2773       L1    22  0.99

> <Gold.PLP.Chemscore.Internal.Correction>
0.9568

