#       Name:                C:\Users\porto\OneDrive\projekt\beta2\ligandy\L_4ldl.pdb L_4ldl.pdb 1
#       Creating user name   student
#       Creation time:       Wed Apr 10 10:16:49 2019


#       File generated by GOLD software.
#

@<TRIPOS>MOLECULE
C:\Users\porto\OneDrive\projekt\beta2\ligandy\L_4ldl.pdb L_4ldl.pdb 1|4ldl|mol2|1|dock16
    55    56     1
SMALL
GASTEIGER


@<TRIPOS>ATOM
      1 CAA        -31.5592   6.9869   6.4459 C.3            1 <1>               -0.0467
      2 CAB        -32.4997   7.0162   7.6465 C.3            1 <1>                0.0176
      3 CAC        -32.0640   5.9900   8.6853 C.3            1 <1>               -0.0467
      4 CAD        -33.9548   6.7951   7.2267 C.3            1 <1>               -0.0098
      5 CAE        -34.2028   5.4449   6.5822 C.ar           1 <1>               -0.0454
      6 CAF        -34.0016   5.2515   5.2175 C.ar           1 <1>               -0.0551
      7 CAG        -34.2413   4.0103   4.6414 C.ar           1 <1>               -0.0199
      8 CAH        -34.6980   2.9557   5.4259 C.ar           1 <1>                0.1169
      9 CAJ        -34.9106   3.1472   6.7858 C.ar           1 <1>               -0.0199
     10 CAK        -34.6708   4.3896   7.3600 C.ar           1 <1>               -0.0551
     11 CAM        -32.9662   9.4616   7.5620 C.3            1 <1>                0.0266
     12 CAN        -32.3443  10.7665   8.0437 C.3            1 <1>                0.0927
     13 CAP        -31.0247  10.9209   7.3894 C.ar           1 <1>               -0.0143
     14 CAQ        -30.8059  11.9197   6.4481 C.ar           1 <1>               -0.0524
     15 CAR        -29.5564  12.0427   5.8492 C.ar           1 <1>               -0.0162
     16 CAS        -28.5263  11.1746   6.1951 C.ar           1 <1>                0.1582
     17 CAU        -28.7441  10.1852   7.1369 C.ar           1 <1>                0.1586
     18 CAW        -29.9915  10.0581   7.7352 C.ar           1 <1>               -0.0109
     19 NAL        -32.3847   8.3266   8.2531 N.3            1 <1>               -0.3080
     20 OAI        -34.9354   1.7386   4.8623 O.3            1 <1>               -0.5068
     21 OAO        -33.2134  11.8639   7.7420 O.3            1 <1>               -0.3859
     22 OAT        -27.3012  11.2969   5.6093 O.3            1 <1>               -0.5033
     23 OAV        -27.7375   9.3340   7.4782 O.3            1 <1>               -0.5033
     24 HAA1       -30.5841   7.3765   6.7379 H              1 <1>                0.0247
     25 HAA2       -31.4500   5.9615   6.0945 H              1 <1>                0.0247
     26 HAA3       -31.9711   7.6022   5.6462 H              1 <1>                0.0247
     27 HAC1       -32.7451   6.0208   9.5353 H              1 <1>                0.0247
     28 HAC2       -32.0812   4.9945   8.2427 H              1 <1>                0.0247
     29 HAC3       -31.0536   6.2197   9.0220 H              1 <1>                0.0247
     30 HAD1       -34.2565   7.5848   6.5392 H              1 <1>                0.0331
     31 HAD2       -34.6032   6.9054   8.0960 H              1 <1>                0.0331
     32 HAF        -33.6576   6.0688   4.6011 H              1 <1>                0.0621
     33 HAG        -34.0733   3.8641   3.5842 H              1 <1>                0.0654
     34 HAJ        -35.2630   2.3298   7.3978 H              1 <1>                0.0654
     35 HAK        -34.8487   4.5344   8.4151 H              1 <1>                0.0621
     36 HAM1       -32.8033   9.3558   6.4889 H              1 <1>                0.0453
     37 HAM2       -34.0406   9.4844   7.7413 H              1 <1>                0.0453
     38 HAN        -32.2013  10.7145   9.1227 H              1 <1>                0.0656
     39 HAQ        -31.6042  12.5967   6.1840 H              1 <1>                0.0622
     40 HAR        -29.3835  12.8141   5.1130 H              1 <1>                0.0655
     41 HAW        -30.1572   9.2856   8.4712 H              1 <1>                0.0659
     42 HNAL       -32.8317   8.3197   9.1587 H              1 <1>                0.1225
     43 HOAI       -34.3947   1.6386   4.0755 H              1 <1>                0.2921
     44 HOAO       -33.6305  11.7177   6.8896 H              1 <1>                0.2103
     45 HOAT       -27.3957  11.7264   4.7560 H              1 <1>                0.2923
     46 HOAV       -28.0746   8.4359   7.5108 H              1 <1>                0.2923
     47 ****       -31.3943   8.4650   8.2515 LP             1 <1>                0.0000
     48 ****       -35.9015   1.6694   4.6137 LP             1 <1>                0.0000
     49 ****       -34.7073   1.0181   5.5171 LP             1 <1>                0.0000
     50 ****       -32.6826  12.7109   7.7122 LP             1 <1>                0.0000
     51 ****       -33.9168  11.9360   8.4491 LP             1 <1>                0.0000
     52 ****       -26.9001  10.3896   5.4832 LP             1 <1>                0.0000
     53 ****       -26.7052  11.8463   6.1948 LP             1 <1>                0.0000
     54 ****       -27.3768   9.5874   8.3758 LP             1 <1>                0.0000
     55 ****       -27.0073   9.3914   6.7973 LP             1 <1>                0.0000
@<TRIPOS>BOND
    1    1    2 1     
    2    1   24 1     
    3    1   25 1     
    4    1   26 1     
    5    2    3 1     
    6    2    4 1     
    7    2   19 1     
    8    3   27 1     
    9    3   28 1     
   10    3   29 1     
   11    4    5 1     
   12    4   30 1     
   13    4   31 1     
   14    5    6 ar    
   15    5   10 ar    
   16    6    7 ar    
   17    6   32 1     
   18    7    8 ar    
   19    7   33 1     
   20    8    9 ar    
   21    8   20 1     
   22    9   10 ar    
   23    9   34 1     
   24   10   35 1     
   25   11   12 1     
   26   11   19 1     
   27   11   36 1     
   28   11   37 1     
   29   12   13 1     
   30   12   21 1     
   31   12   38 1     
   32   13   14 ar    
   33   13   18 ar    
   34   14   15 ar    
   35   14   39 1     
   36   15   16 ar    
   37   15   40 1     
   38   16   17 ar    
   39   16   22 1     
   40   17   18 ar    
   41   17   23 1     
   42   18   41 1     
   43   19   42 1     
   44   20   43 1     
   45   21   44 1     
   46   22   45 1     
   47   23   46 1     
   48   19   47 1     
   49   20   48 1     
   50   20   49 1     
   51   21   50 1     
   52   21   51 1     
   53   22   52 1     
   54   22   53 1     
   55   23   54 1     
   56   23   55 1     
@<TRIPOS>SUBSTRUCTURE
      1 ****           1
@<TRIPOS>SET
LONE_PAIRS      STATIC     ATOMS    <user>   **** ""
9 47 48 49 50 51 52 53 54 55
DONOR_HYDROGENS      STATIC     ATOMS    <user>   **** ""
5 42 43 44 45 46
ATOM$BLUE        STATIC     ATOMS    COLORGROUP SYSTEM
9 47 48 49 50 51 52 53 54 55
ATOM$RED        STATIC     ATOMS    COLORGROUP SYSTEM
5 42 43 44 45 46
@<TRIPOS>COMMENT
> <Gold.Version>
5.6

> <Gold.Id.Protein>
unknown|dok_beta2|pdb

> <Gold.Protein.RotatedTorsions>
[ 4175 4166 4165 4163 ] final  156.18 input -179.98 | X-H torsion
[ 1294 1290 1288 1285 ] final  112.82 input -179.99 | X-H torsion
[ 4033 4024 4023 4021 ] final   21.77 input  179.98 | X-H torsion
[ 1412 1408 1406 1403 ] final   30.57 input -179.99 | X-H torsion
[ 2830 2825 2824 2821 ] final  140.31 input -179.98 | X-H torsion
[ 2723 2714 2713 2711 ] final   60.98 input -179.98 | X-H torsion
[ 2773 2768 2767 2764 ] final -102.72 input  180.00 | X-H torsion

> <Gold.Protein.ActiveResidues>
 TRP109  THR110  ASP113  VAL114  VAL117  THR118  PHE193  TYR199  SER203  SER207 
 PHE208  TRP286  PHE289  PHE290  ASN293  TYR308  ASN312  TYR316 

> <Gold.Protein.RotatedAtoms>
  -34.7410    3.7710    1.0220 H   0  0  0  0  0  0  0  0  0  0  0  0  # atno 1294 bound_to 1290
  -28.1325   14.9516    3.1348 H   0  0  0  0  0  0  0  0  0  0  0  0  # atno 1412 bound_to 1408
  -26.6905    7.2316    1.2892 H   0  0  0  0  0  0  0  0  0  0  0  0  # atno 2723 bound_to 2714
  -24.5435   10.0722    3.8649 H   0  0  0  0  0  0  0  0  0  0  0  0  # atno 2773 bound_to 2768
  -24.4006   12.7259    3.0768 H   0  0  0  0  0  0  0  0  0  0  0  0  # atno 2830 bound_to 2825
  -29.3260    5.9967   10.6226 H   0  0  0  0  0  0  0  0  0  0  0  0  # atno 4033 bound_to 4024
  -36.5733    9.3478    7.1765 H   0  0  0  0  0  0  0  0  0  0  0  0  # atno 4175 bound_to 4166
  -37.8103    8.5036    7.7405 LP  0  0  0  0  0  0  0  0  0  0  0  0  # atno 4597 bound_to 4166
  -36.3821    8.5193    8.5322 LP  0  0  0  0  0  0  0  0  0  0  0  0  # atno 4598 bound_to 4166
  -35.3140    4.7662    2.1366 LP  0  0  0  0  0  0  0  0  0  0  0  0  # atno 4603 bound_to 1290
  -33.9208    3.9511    2.3844 LP  0  0  0  0  0  0  0  0  0  0  0  0  # atno 4604 bound_to 1290
  -27.8914    5.5615   11.1836 LP  0  0  0  0  0  0  0  0  0  0  0  0  # atno 4607 bound_to 4024
  -28.4702    7.0646   11.4529 LP  0  0  0  0  0  0  0  0  0  0  0  0  # atno 4608 bound_to 4024
  -26.5784   15.1105    2.7876 LP  0  0  0  0  0  0  0  0  0  0  0  0  # atno 4611 bound_to 1408
  -27.6206   14.5055    1.6856 LP  0  0  0  0  0  0  0  0  0  0  0  0  # atno 4612 bound_to 1408
  -23.2896   13.7147    2.4869 LP  0  0  0  0  0  0  0  0  0  0  0  0  # atno 4613 bound_to 2825
  -24.8617   13.8914    2.0823 LP  0  0  0  0  0  0  0  0  0  0  0  0  # atno 4614 bound_to 2825

> <Gold.Score>
     Fitness  S(hb_ext) S(vdw_ext)  S(hb_int)    S(int)      intcor
     62.68       6.36      43.02       0.00      -2.84     -14.00

> <Gold.Goldscore.Fitness>
62.6777

> <Gold.Goldscore.Internal.Vdw>
-11.6330

> <Gold.Goldscore.Internal.Torsion>
-5.2142

> <Gold.Goldscore.External.Vdw>
43.0233

> <Gold.Goldscore.Internal.HBond>
0.0000

> <Gold.Goldscore.External.HBond>
6.3643

> <Gold.Goldscore.Internal.Correction>
-14.0035

> <Gold.Goldscore.Hbonds>
donor molecule, donor type, donor heavy atom, donor atom, acceptor molecule, acceptor atom, score
      P1  H  4097  4104       L1    21  0.14
      L1  H    19    42       P1  4098  1.00
      L1  H    21    44       P1  1334  0.68

> <Gold.Goldscore.Internal.Vdw.Weighted>
-11.6330

> <Gold.Goldscore.Internal.Torsion.Weighted>
-5.2142

> <Gold.Goldscore.External.Vdw.Weighted>
59.1570

> <Gold.Goldscore.Internal.HBond.Weighted>
0.0000

> <Gold.Goldscore.External.HBond.Weighted>
6.3643

> <Gold.Goldscore.Internal.Correction.Weighted>
-14.0035

