#       Name:                C:\Users\porto\OneDrive\projekt\beta1\ligandy\L_6h7n.pdb L_6h7n.pdb 1
#       Creating user name   student
#       Creation time:       Mon Apr 08 14:24:48 2019


#       File generated by GOLD software.
#

@<TRIPOS>MOLECULE
C:\Users\porto\OneDrive\projekt\beta1\ligandy\L_6h7n.pdb L_6h7n.pdb 1|6h7n|mol2|1|dock46
    60    61     1
SMALL
GASTEIGER


@<TRIPOS>ATOM
      1 C1         -24.4952  11.1214  23.5236 C.3            1 <1>                0.0396
      2 N1         -24.2439  10.2590  22.3711 N.am           1 <1>               -0.2813
      3 O1         -23.5271   9.4734  24.9966 O.3            1 <1>               -0.3767
      4 C2         -23.4777  10.8369  24.5980 C.3            1 <1>                0.0635
      5 N2         -24.3011   9.9983  20.0599 N.am           1 <1>               -0.2980
      6 O2         -23.9438  11.9931  20.9510 O.2            1 <1>               -0.2526
      7 C3         -23.2283   8.6360  23.8857 C.3            1 <1>                0.0635
      8 N3         -23.4150   8.3470  17.7299 N.3            1 <1>               -0.3119
      9 O3         -23.0010   4.4324  15.2298 O.3            1 <1>               -0.4894
     10 C4         -24.1855   8.8458  22.7372 C.3            1 <1>                0.0396
     11 O4         -23.3919   3.6499   9.7832 O.3            1 <1>               -0.5068
     12 C5         -24.1373  10.7886  21.1038 C.2            1 <1>                0.3024
     13 O5         -24.1823   5.8526  17.4985 O.3            1 <1>               -0.3872
     14 C6         -24.2497  10.4892  18.6884 C.3            1 <1>                0.0256
     15 C7         -23.1931   9.7894  17.8580 C.3            1 <1>                0.0116
     16 C8         -23.6167   7.9173  16.3459 C.3            1 <1>                0.0252
     17 C9         -23.8567   6.4171  16.2357 C.3            1 <1>                0.1015
     18 C10        -22.6213   5.7393  15.6839 C.3            1 <1>                0.1166
     19 C11        -23.0836   4.1710  13.8842 C.ar           1 <1>                0.1209
     20 C12        -23.3256   5.2610  13.0584 C.ar           1 <1>               -0.0165
     21 C13        -23.4256   5.0931  11.6846 C.ar           1 <1>               -0.0167
     22 C14        -23.2920   3.8322  11.1260 C.ar           1 <1>                0.1171
     23 C15        -23.0535   2.7458  11.9472 C.ar           1 <1>               -0.0167
     24 C16        -22.9498   2.9090  13.3177 C.ar           1 <1>               -0.0165
     25 H11        -25.4954  10.9280  23.9100 H              1 <1>                0.0488
     26 H12        -24.4198  12.1649  23.2188 H              1 <1>                0.0488
     27 H21        -23.6731  11.4741  25.4606 H              1 <1>                0.0575
     28 H22        -22.4803  11.0702  24.2246 H              1 <1>                0.0575
     29 HN2        -24.4695   9.0112  20.1952 H              1 <1>                0.1503
     30 H31        -23.2613   7.5929  24.1998 H              1 <1>                0.0575
     31 H32        -22.2104   8.8301  23.5493 H              1 <1>                0.0575
     32 HN3        -24.2307   8.1136  18.2781 H              1 <1>                0.1221
     33 H41        -23.8549   8.2611  21.8783 H              1 <1>                0.0488
     34 H42        -25.1795   8.5040  23.0263 H              1 <1>                0.0488
     35 HO4        -23.9397   2.8827   9.6037 H              1 <1>                0.2921
     36 HO5        -24.5276   6.5376  18.0761 H              1 <1>                0.2100
     37 H61        -24.0546  11.5618  18.6950 H              1 <1>                0.0475
     38 H62        -25.2244  10.3574  18.2196 H              1 <1>                0.0475
     39 H71        -23.1558  10.2389  16.8654 H              1 <1>                0.0439
     40 H72        -22.2118   9.9671  18.2970 H              1 <1>                0.0439
     41 H81        -22.7449   8.1897  15.7509 H              1 <1>                0.0450
     42 H82        -24.4655   8.4530  15.9203 H              1 <1>                0.0450
     43 H9         -24.6864   6.2442  15.5507 H              1 <1>                0.0640
     44 H101       -22.2346   6.3175  14.8442 H              1 <1>                0.0723
     45 H102       -21.8748   5.6470  16.4732 H              1 <1>                0.0723
     46 H12        -23.4370   6.2472  13.4842 H              1 <1>                0.0655
     47 H13        -23.6078   5.9463  11.0485 H              1 <1>                0.0655
     48 H15        -22.9460   1.7595  11.5201 H              1 <1>                0.0655
     49 H16        -22.7637   2.0516  13.9475 H              1 <1>                0.0655
     50 ****       -24.4429   9.2598  25.3366 LP             1 <1>                0.0000
     51 ****       -22.8570   9.3149  25.7217 LP             1 <1>                0.0000
     52 ****       -23.8633  12.5916  21.7481 LP             1 <1>                0.0000
     53 ****       -23.8669  12.3743  20.0297 LP             1 <1>                0.0000
     54 ****       -22.5968   7.8731  18.0555 LP             1 <1>                0.0000
     55 ****       -23.9035   4.2430  15.6168 LP             1 <1>                0.0000
     56 ****       -22.3346   3.7901  15.6085 LP             1 <1>                0.0000
     57 ****       -22.4805   3.5060   9.3978 LP             1 <1>                0.0000
     58 ****       -23.8058   4.4595   9.3670 LP             1 <1>                0.0000
     59 ****       -23.3611   5.4545  17.9073 LP             1 <1>                0.0000
     60 ****       -24.8731   5.1398  17.3768 LP             1 <1>                0.0000
@<TRIPOS>BOND
    1    1    2 1     
    2    1    4 1     
    3    1   25 1     
    4    1   26 1     
    5    2   10 1     
    6    2   12 am    
    7    3    4 1     
    8    3    7 1     
    9    4   27 1     
   10    4   28 1     
   11    5   12 am    
   12    5   14 1     
   13    5   29 1     
   14    6   12 2     
   15    7   10 1     
   16    7   30 1     
   17    7   31 1     
   18    8   16 1     
   19    8   15 1     
   20    8   32 1     
   21    9   18 1     
   22    9   19 1     
   23   10   33 1     
   24   10   34 1     
   25   11   22 1     
   26   11   35 1     
   27   13   17 1     
   28   13   36 1     
   29   14   15 1     
   30   14   37 1     
   31   14   38 1     
   32   15   39 1     
   33   15   40 1     
   34   16   17 1     
   35   16   41 1     
   36   16   42 1     
   37   17   18 1     
   38   17   43 1     
   39   18   44 1     
   40   18   45 1     
   41   19   20 ar    
   42   19   24 ar    
   43   20   21 ar    
   44   20   46 1     
   45   21   22 ar    
   46   21   47 1     
   47   22   23 ar    
   48   23   24 ar    
   49   23   48 1     
   50   24   49 1     
   51    3   50 1     
   52    3   51 1     
   53    6   52 1     
   54    6   53 1     
   55    8   54 1     
   56    9   55 1     
   57    9   56 1     
   58   11   57 1     
   59   11   58 1     
   60   13   59 1     
   61   13   60 1     
@<TRIPOS>SUBSTRUCTURE
      1 ****           1
@<TRIPOS>SET
LONE_PAIRS      STATIC     ATOMS    <user>   **** ""
11 50 51 52 53 54 55 56 57 58 59 60
DONOR_HYDROGENS      STATIC     ATOMS    <user>   **** ""
4 29 32 35 36
ATOM$BLUE        STATIC     ATOMS    COLORGROUP SYSTEM
11 50 51 52 53 54 55 56 57 58 59 60
ATOM$RED        STATIC     ATOMS    COLORGROUP SYSTEM
4 29 32 35 36
@<TRIPOS>COMMENT
> <Gold.Version>
5.5

> <Gold.Id.Protein>
unknown|bialko_beta1|pdb

> <Gold.Protein.ActiveResidues>
 ALA86   ASP87   VAL90   VAL94   VAL95   GLY98   ALA99   LEU101  VAL102  CYS114 
 GLU115  TRP117  THR118  SER119  LEU120  ASP121  VAL122  CYS124  VAL125  THR126 
 SER128  SER173  PHE174  ILE177  CYS199  ASP200  PHE201  TYR207  SER215  PHE299 
 TRP303  PHE306  PHE307  ASN310  PHE325  VAL326  ASN329  TRP330  GLY332  TYR333 
 SER336 

> <Gold.Score>
     Score     S(PLP)   S(hbond)     S(cho)   S(metal)  DE(clash)   DE(tors)     intcor
     74.03     -69.27       2.78       0.00       0.00       0.00       1.95       0.30

> <Gold.PLP.Fitness>
74.0323

> <Gold.PLP.PLP>
-69.2748

> <Gold.PLP.part.hbond>
-5.4469

> <Gold.PLP.part.metal>
0.0000

> <Gold.PLP.part.buried>
-7.4773

> <Gold.PLP.part.nonpolar>
-59.2603

> <Gold.PLP.part.repulsive>
1.3632

> <Gold.PLP.ligand.clash>
0.0000

> <Gold.PLP.ligand.torsion>
1.9481

> <Gold.PLP.Chemscore.Hbond>
2.7840

> <Gold.PLP.Chemscore.CHOScore>
0.0000

> <Gold.PLP.Chemscore.Metal>
0.0000

> <Gold.Chemscore.Hbonds>
donor molecule, donor type, donor heavy atom, donor atom, acceptor molecule, acceptor atom, score
      L1  H     5    29       P1  2066  0.78
      L1  H     8    32       P1  2066  1.00
      L1  H    13    36       P1  2066  1.00

> <Gold.PLP.Chemscore.Internal.Correction>
0.3016

