#       Name:                C:\Users\porto\OneDrive\projekt\beta1\ligandy\L_3zpq.pdb L_3zpq.pdb 1
#       Creating user name   student
#       Creation time:       Mon Apr 08 16:28:11 2019


#       File generated by GOLD software.
#

@<TRIPOS>MOLECULE
C:\Users\porto\OneDrive\projekt\beta1\ligandy\L_3zpq.pdb L_3zpq.pdb 1|3zpq|mol2|1|dock2
    31    33     1
SMALL
GASTEIGER


@<TRIPOS>ATOM
      1 C1         -22.7884   2.3683  12.2970 C.ar           1 <1>               -0.0580
      2 C2         -23.0784   2.8924  13.5418 C.ar           1 <1>               -0.0400
      3 C3         -23.4822   4.2204  13.6451 C.ar           1 <1>                0.0390
      4 C4         -23.5655   4.9734  12.5396 C.ar           1 <1>                0.0207
      5 C5         -23.8988   6.2555  12.3559 C.ar           1 <1>               -0.0349
      6 C6         -23.8289   6.5300  11.0533 C.ar           1 <1>                0.0028
      7 N7         -23.4516   5.4177  10.4253 N.pl3          1 <1>               -0.3606
      8 C8         -23.2832   4.4618  11.3341 C.ar           1 <1>                0.0482
      9 C9         -22.9011   3.1960  11.1935 C.ar           1 <1>               -0.0377
     10 N10        -23.7162   4.7317  14.8698 N.pl3          1 <1>               -0.3270
     11 C11        -23.0164   6.0106  15.2180 C.3            1 <1>                0.0248
     12 C12        -23.5950   6.8185  16.3499 C.3            1 <1>                0.0117
     13 N13        -24.4831   6.0216  17.2224 N.3            1 <1>               -0.3130
     14 C14        -24.0957   4.6098  17.1805 C.3            1 <1>                0.0117
     15 C15        -24.4886   4.0008  15.9011 C.3            1 <1>                0.0248
     16 H1         -22.4829   1.3370  12.2029 H              1 <1>                0.0619
     17 H2         -22.9907   2.2735  14.4219 H              1 <1>                0.0636
     18 H5         -24.1638   6.8717  13.2030 H              1 <1>                0.0639
     19 H6         -24.0625   7.5220  10.6970 H              1 <1>                0.0807
     20 HN7        -23.3435   5.4167   9.4214 H              1 <1>                0.1653
     21 H9         -22.6781   2.8154  10.2074 H              1 <1>                0.0638
     22 H111       -22.9502   6.6362  14.3282 H              1 <1>                0.0476
     23 H112       -21.9680   5.7994  15.4272 H              1 <1>                0.0476
     24 H121       -24.1500   7.6644  15.9446 H              1 <1>                0.0439
     25 H122       -22.7850   7.2393  16.9457 H              1 <1>                0.0439
     26 HN13       -24.4115   6.3569  18.1726 H              1 <1>                0.1220
     27 H141       -24.5781   4.0764  17.9997 H              1 <1>                0.0439
     28 H142       -23.0161   4.5258  17.3064 H              1 <1>                0.0439
     29 H151       -24.1962   2.9512  15.8959 H              1 <1>                0.0476
     30 H152       -25.5538   4.1611  15.7367 H              1 <1>                0.0476
     31 ****       -25.4247   6.1149  16.8988 LP             1 <1>                0.0000
@<TRIPOS>BOND
    1    1    2 ar    
    2    1    9 ar    
    3    1   16 1     
    4    2    3 ar    
    5    2   17 1     
    6    3    4 ar    
    7    3   10 1     
    8    4    5 ar    
    9    4    8 ar    
   10    5    6 ar    
   11    5   18 1     
   12    6    7 ar    
   13    6   19 1     
   14    7    8 ar    
   15    7   20 1     
   16    8    9 ar    
   17    9   21 1     
   18   10   11 1     
   19   10   15 1     
   20   11   12 1     
   21   11   22 1     
   22   11   23 1     
   23   12   13 1     
   24   12   24 1     
   25   12   25 1     
   26   13   14 1     
   27   13   26 1     
   28   14   15 1     
   29   14   27 1     
   30   14   28 1     
   31   15   29 1     
   32   15   30 1     
   33   13   31 1     
@<TRIPOS>SUBSTRUCTURE
      1 ****           1
@<TRIPOS>SET
LONE_PAIRS      STATIC     ATOMS    <user>   **** ""
1 31
DONOR_HYDROGENS      STATIC     ATOMS    <user>   **** ""
2 20 26
ATOM$BLUE        STATIC     ATOMS    COLORGROUP SYSTEM
1 31
ATOM$RED        STATIC     ATOMS    COLORGROUP SYSTEM
2 20 26
@<TRIPOS>COMMENT
> <Gold.Version>
5.5

> <Gold.Id.Protein>
unknown|bialko_beta1|pdb

> <Gold.Protein.ActiveResidues>
 ALA86   ASP87   VAL90   VAL94   VAL95   GLY98   ALA99   LEU101  VAL102  CYS114 
 GLU115  TRP117  THR118  SER119  LEU120  ASP121  VAL122  CYS124  VAL125  THR126 
 SER128  SER173  PHE174  ILE177  CYS199  ASP200  PHE201  TYR207  SER215  PHE299 
 TRP303  PHE306  PHE307  ASN310  PHE325  VAL326  ASN329  TRP330  GLY332  TYR333 
 SER336 

> <Gold.Score>
     Score     S(PLP)   S(hbond)     S(cho)   S(metal)  DE(clash)   DE(tors)     intcor
     54.66     -53.42       0.57       0.00       0.00       0.00       0.80       1.13

> <Gold.PLP.Fitness>
54.6609

> <Gold.PLP.PLP>
-53.4222

> <Gold.PLP.part.hbond>
-1.7908

> <Gold.PLP.part.metal>
0.0000

> <Gold.PLP.part.buried>
-2.6442

> <Gold.PLP.part.nonpolar>
-50.1872

> <Gold.PLP.part.repulsive>
0.0000

> <Gold.PLP.ligand.clash>
0.0000

> <Gold.PLP.ligand.torsion>
0.7985

> <Gold.PLP.Chemscore.Hbond>
0.5678

> <Gold.PLP.Chemscore.CHOScore>
0.0000

> <Gold.PLP.Chemscore.Metal>
0.0000

> <Gold.Chemscore.Hbonds>
donor molecule, donor type, donor heavy atom, donor atom, acceptor molecule, acceptor atom, score
      L1  H    13    26       P1  2066  0.57

> <Gold.PLP.Chemscore.Internal.Correction>
1.1321

