@<TRIPOS>MOLECULE
C:\Users\porto\OneDrive\projekt\beta1\ligandy\2y00 2y00 1
 45 46 0 0 0
SMALL
GASTEIGER

@<TRIPOS>ATOM
      1  C1       -23.6060    6.1660   15.7710 C.3   601  Y00601     -0.0150
      2  N1       -23.0590    7.9500   17.4210 N.3   601  Y00601     -0.3132
      3  O1       -24.3590    7.1360   10.9860 O.3   601  Y00601     -0.5033
      4  C2       -23.6150    5.7740   14.3050 C.ar  601  Y00601     -0.0425
      5  O2       -23.6190    4.6800   10.2760 O.3   601  Y00601     -0.5033
      6  C3       -23.2290    4.4730   13.9390 C.ar  601  Y00601     -0.0549
      7  O3       -24.2900   10.9150   25.2150 O.3   601  Y00601     -0.5068
      8  C4       -23.1890    4.0610   12.5980 C.ar  601  Y00601     -0.0163
      9  C5       -23.5830    4.9630   11.6070 C.ar  601  Y00601      0.1582
     10  C6       -24.0010    6.3170   11.9920 C.ar  601  Y00601      0.1585
     11  C7       -24.0140    6.6990   13.3270 C.ar  601  Y00601     -0.0133
     12  C8       -23.1950    7.6250   15.9970 C.3   601  Y00601      0.0001
     13  C9       -22.2480    9.0780   17.8900 C.3   601  Y00601      0.0051
     14  C10      -20.7540    8.8400   17.6420 C.3   601  Y00601     -0.0497
     15  C11      -22.4490    9.3600   19.3730 C.3   601  Y00601     -0.0338
     16  C12      -23.8950    9.7150   19.7120 C.3   601  Y00601     -0.0263
     17  C13      -24.0050   10.0700   21.1740 C.ar  601  Y00601     -0.0471
     18  C14      -24.3540   11.3660   21.5730 C.ar  601  Y00601     -0.0551
     19  C15      -24.4550   11.6530   22.9320 C.ar  601  Y00601     -0.0199
     20  C16      -24.1930   10.6600   23.8830 C.ar  601  Y00601      0.1169
     21  C17      -23.8420    9.3800   23.4930 C.ar  601  Y00601     -0.0199
     22  C18      -23.7510    9.0870   22.1310 C.ar  601  Y00601     -0.0551
     23  H11      -22.9280    5.5100   16.3170 H     601  Y00601      0.0325
     24  H12      -24.5950    5.9980   16.1970 H     601  Y00601      0.0325
     25  HN1      -23.9690    8.1520   17.8090 H     601  Y00601      0.1222
     26  HO1      -24.6130    7.9900   11.3430 H     601  Y00601      0.2923
     27  HO2      -23.9210    5.4520    9.7920 H     601  Y00601      0.2923
     28  H3       -22.9520    3.7580   14.6990 H     601  Y00601      0.0621
     29  HO3      -24.0750   10.1210   25.7100 H     601  Y00601      0.2921
     30  H4       -22.8580    3.0630   12.3490 H     601  Y00601      0.0655
     31  H7       -24.3250    7.6920   13.6170 H     601  Y00601      0.0658
     32  H81      -23.9350    8.2840   15.5440 H     601  Y00601      0.0427
     33  H82      -22.2500    7.8180   15.4890 H     601  Y00601      0.0427
     34  H9       -22.5470    9.9660   17.3320 H     601  Y00601      0.0458
     35 H101      -20.1840    9.6970   18.0020 H     601  Y00601      0.0245
     36 H102      -20.4350    7.9430   18.1730 H     601  Y00601      0.0245
     37 H103      -20.5790    8.7110   16.5740 H     601  Y00601      0.0245
     38 H111      -21.7940   10.1760   19.6790 H     601  Y00601      0.0283
     39 H112      -22.1450    8.4880   19.9520 H     601  Y00601      0.0283
     40 H121      -24.5380    8.8620   19.4960 H     601  Y00601      0.0314
     41 H122      -24.2120   10.5650   19.1070 H     601  Y00601      0.0314
     42  H14      -24.5410   12.1280   20.8310 H     601  Y00601      0.0621
     43  H15      -24.7360   12.6440   23.2550 H     601  Y00601      0.0654
     44  H17      -23.6430    8.6240   24.2380 H     601  Y00601      0.0654
     45  H18      -23.4810    8.0880   21.8210 H     601  Y00601      0.0621
@<TRIPOS>BOND
     1     1     4    1
     2     1    12    1
     3     1    23    1
     4     1    24    1
     5     2    12    1
     6     2    13    1
     7     2    25    1
     8     3    10    1
     9     3    26    1
    10     4     6   ar
    11     4    11   ar
    12     5     9    1
    13     5    27    1
    14     6     8   ar
    15     6    28    1
    16     7    20    1
    17     7    29    1
    18     8     9   ar
    19     8    30    1
    20     9    10   ar
    21    10    11   ar
    22    11    31    1
    23    12    32    1
    24    12    33    1
    25    13    14    1
    26    13    15    1
    27    13    34    1
    28    14    35    1
    29    14    36    1
    30    14    37    1
    31    15    16    1
    32    15    38    1
    33    15    39    1
    34    16    17    1
    35    16    40    1
    36    16    41    1
    37    17    18   ar
    38    17    22   ar
    39    18    19   ar
    40    18    42    1
    41    19    20   ar
    42    19    43    1
    43    20    21   ar
    44    21    22   ar
    45    21    44    1
    46    22    45    1
