@<TRIPOS>MOLECULE
C:\Users\porto\OneDrive\projekt\beta1\ligandy\L_2y02.pdb L_2y02.pdb 1
 51 53 0 0 0
SMALL
GASTEIGER

@<TRIPOS>ATOM
      1  C1       -24.8990    7.9380   13.6660 C.ar  601  WHJ601     -0.0471
      2  N1       -24.4660    7.0650   11.0180 N.ar  601  WHJ601     -0.3192
      3  O1       -25.3850    8.9900   10.3200 O.2   601  WHJ601     -0.2679
      4  C2       -24.3120    6.6980   13.4410 C.ar  601  WHJ601      0.0078
      5  N2       -23.1910    7.6590   17.7410 N.3   601  WHJ601     -0.3104
      6  O2       -23.2930    4.5890   10.4970 O.3   601  WHJ601     -0.5047
      7  C3       -23.8700    5.7710   14.5340 C.ar  601  WHJ601     -0.0086
      8  O3       -24.8440   14.5290   20.2910 O.3   601  WHJ601     -0.4951
      9  C4       -23.2770    4.5450   14.1650 C.ar  601  WHJ601     -0.0519
     10  O4       -23.7100    5.0300   16.8280 O.3   601  WHJ601     -0.3859
     11  C5       -23.0790    4.1490   12.8450 C.ar  601  WHJ601     -0.0178
     12  C6       -23.4620    4.9680   11.7810 C.ar  601  WHJ601      0.1407
     13  C7       -24.0930    6.2770   12.0310 C.ar  601  WHJ601      0.0915
     14  C8       -25.2620    8.7160   12.5690 C.ar  601  WHJ601      0.0034
     15  C9       -25.0380    8.2600   11.2690 C.ar  601  WHJ601      0.2493
     16  C10      -24.0390    6.1370   15.9750 C.3   601  WHJ601      0.0932
     17  C11      -23.0760    7.2650   16.3380 C.3   601  WHJ601      0.0264
     18  C12      -22.7090    8.9640   18.2010 C.3   601  WHJ601      0.0089
     19  C13      -21.2080    9.1720   17.9730 C.3   601  WHJ601     -0.0494
     20  C14      -23.0400    9.1770   19.6780 C.3   601  WHJ601     -0.0125
     21  C15      -23.5340   10.5950   19.8450 C.ar  601  WHJ601     -0.0457
     22  C16      -22.6560   11.5710   20.3060 C.ar  601  WHJ601     -0.0551
     23  C17      -23.0920   12.8870   20.4520 C.ar  601  WHJ601     -0.0197
     24  C18      -24.4110   13.2260   20.1380 C.ar  601  WHJ601      0.1201
     25  C19      -25.2910   12.2440   19.6730 C.ar  601  WHJ601     -0.0197
     26  C20      -24.8560   10.9300   19.5310 C.ar  601  WHJ601     -0.0551
     27  C21      -25.0470   15.0910   21.5940 C.3   601  WHJ601      0.0788
     28  H1       -25.0660    8.2810   14.6760 H     601  WHJ601      0.0626
     29  HN1      -24.3190    6.7650   10.0650 H     601  WHJ601      0.1690
     30  HN2      -22.6990    6.9260   18.2310 H     601  WHJ601      0.1223
     31  HO2      -23.6150    5.2800    9.9140 H     601  WHJ601      0.2922
     32  H4       -22.9480    3.8540   14.9270 H     601  WHJ601      0.0622
     33  HO4      -23.8250    5.2870   17.7460 H     601  WHJ601      0.2103
     34  H5       -22.6220    3.1940   12.6300 H     601  WHJ601      0.0655
     35  H8       -25.7210    9.6820   12.7200 H     601  WHJ601      0.0672
     36  H10      -25.0660    6.4530   16.1590 H     601  WHJ601      0.0656
     37 H111      -22.0530    6.9490   16.1330 H     601  WHJ601      0.0453
     38 H112      -23.2720    8.1280   15.7020 H     601  WHJ601      0.0453
     39  H12      -23.2370    9.7290   17.6320 H     601  WHJ601      0.0461
     40 H131      -20.9180   10.1580   18.3360 H     601  WHJ601      0.0245
     41 H132      -20.6490    8.4080   18.5120 H     601  WHJ601      0.0245
     42 H133      -20.9880    9.0990   16.9080 H     601  WHJ601      0.0245
     43 H141      -22.1400    9.0330   20.2760 H     601  WHJ601      0.0328
     44 H142      -23.8240    8.4820   19.9780 H     601  WHJ601      0.0328
     45  H16      -21.6370   11.3090   20.5510 H     601  WHJ601      0.0621
     46  H17      -22.4100   13.6450   20.8080 H     601  WHJ601      0.0654
     47  H19      -26.3090   12.5050   19.4240 H     601  WHJ601      0.0654
     48  H20      -25.5370   10.1690   19.1790 H     601  WHJ601      0.0621
     49 H211      -25.3870   16.1220   21.4970 H     601  WHJ601      0.0660
     50 H212      -25.7990   14.5100   22.1280 H     601  WHJ601      0.0660
     51 H213      -24.1100   15.0690   22.1500 H     601  WHJ601      0.0660
@<TRIPOS>BOND
     1     1     4   ar
     2     1    14   ar
     3     1    28    1
     4     2    13   ar
     5     2    15   ar
     6     2    29    1
     7     3    15    2
     8     4     7   ar
     9     4    13   ar
    10     5    18    1
    11     5    17    1
    12     5    30    1
    13     6    12    1
    14     6    31    1
    15     7    16    1
    16     7     9   ar
    17     8    27    1
    18     8    24    1
    19     9    11   ar
    20     9    32    1
    21    10    16    1
    22    10    33    1
    23    11    12   ar
    24    11    34    1
    25    12    13   ar
    26    14    15   ar
    27    14    35    1
    28    16    17    1
    29    16    36    1
    30    17    37    1
    31    17    38    1
    32    18    19    1
    33    18    20    1
    34    18    39    1
    35    19    40    1
    36    19    41    1
    37    19    42    1
    38    20    21    1
    39    20    43    1
    40    20    44    1
    41    21    22   ar
    42    21    26   ar
    43    22    23   ar
    44    22    45    1
    45    23    24   ar
    46    23    46    1
    47    24    25   ar
    48    25    26   ar
    49    25    47    1
    50    26    48    1
    51    27    49    1
    52    27    50    1
    53    27    51    1
