@<TRIPOS>MOLECULE
C:\Users\porto\OneDrive\projekt\beta1\ligandy\L_3zpq.pdb L_3zpq.pdb 1
 30 32 0 0 0
SMALL
GASTEIGER

@<TRIPOS>ATOM
      1  C1       -22.9460    3.4120   12.1370 C.ar  1360  XF51360    -0.0580
      2  C2       -23.1260    3.7880   13.4540 C.ar  1360  XF51360    -0.0400
      3  C3       -23.5890    5.0690   13.7400 C.ar  1360  XF51360     0.0390
      4  C4       -23.8350    5.9220   12.7360 C.ar  1360  XF51360     0.0207
      5  C5       -24.2570    7.1910   12.7260 C.ar  1360  XF51360    -0.0349
      6  C6       -24.3460    7.5990   11.4600 C.ar  1360  XF51360     0.0028
      7  N7       -23.9790    6.5830   10.6810 N.ar  1360  XF51360    -0.3606
      8  C8       -23.6590    5.5540   11.4600 C.ar  1360  XF51360     0.0482
      9  C9       -23.2250    4.3370   11.1460 C.ar  1360  XF51360    -0.0377
     10  N10      -23.7150    5.4380   15.0300 N.pl3 1360  XF51360    -0.3270
     11  C11      -22.7250    6.4350   15.5520 C.3   1360  XF51360     0.0248
     12  C12      -23.1080    7.1880   16.7990 C.3   1360  XF51360     0.0117
     13  N13      -24.1870    6.5210   17.5580 N.3   1360  XF51360    -0.3130
     14  C14      -24.1650    5.0790   17.3030 C.3   1360  XF51360     0.0117
     15  C15      -24.6690    4.7820   15.9540 C.3   1360  XF51360     0.0248
     16  H1       -22.5960    2.4180   11.9020 H     1360  XF51360     0.0619
     17  H2       -22.9080    3.0910   14.2490 H     1360  XF51360     0.0636
     18  H5       -24.4610    7.7000   13.6570 H     1360  XF51360     0.0639
     19  H6       -24.6720    8.6040   11.2380 H     1360  XF51360     0.0807
     20  HN7      -23.9820    6.6900    9.6770 H     1360  XF51360     0.1653
     21  H9       -23.0910    4.0730   10.1070 H     1360  XF51360     0.0638
     22 H111      -22.4840    7.1470   14.7630 H     1360  XF51360     0.0476
     23 H112      -21.7680    5.9390   15.7120 H     1360  XF51360     0.0476
     24 H121      -23.4240    8.1960   16.5310 H     1360  XF51360     0.0439
     25 H122      -22.2320    7.3000   17.4380 H     1360  XF51360     0.0439
     26 HN13      -24.0550    6.6850   18.5460 H     1360  XF51360     0.1220
     27 H141      -24.7840    4.5700   18.0420 H     1360  XF51360     0.0439
     28 H142      -23.1440    4.7090   17.3990 H     1360  XF51360     0.0439
     29 H151      -24.6490    3.7050   15.7900 H     1360  XF51360     0.0476
     30 H152      -25.6560    5.2270   15.8310 H     1360  XF51360     0.0476
@<TRIPOS>BOND
     1     1     2   ar
     2     1     9   ar
     3     1    16    1
     4     2     3   ar
     5     2    17    1
     6     3     4   ar
     7     3    10    1
     8     4     5   ar
     9     4     8   ar
    10     5     6   ar
    11     5    18    1
    12     6     7   ar
    13     6    19    1
    14     7     8   ar
    15     7    20    1
    16     8     9   ar
    17     9    21    1
    18    10    11    1
    19    10    15    1
    20    11    12    1
    21    11    22    1
    22    11    23    1
    23    12    13    1
    24    12    24    1
    25    12    25    1
    26    13    14    1
    27    13    26    1
    28    14    15    1
    29    14    27    1
    30    14    28    1
    31    15    29    1
    32    15    30    1
