@<TRIPOS>MOLECULE
C:\Users\porto\OneDrive\projekt\beta1\ligandy\L_4amj.pdb L_4amj.pdb 1
 56 59 0 0 0
SMALL
GASTEIGER

@<TRIPOS>ATOM
      1  C1       -24.1440    5.6630   17.0580 C.3   1360  CVD1360     0.1015
      2  N1       -23.6770    5.9060   10.1850 N.ar  1360  CVD1360    -0.3540
      3  O1       -23.7360    5.0310   18.2730 O.3   1360  CVD1360    -0.3872
      4  C2       -23.7300    4.7560   15.9240 C.3   1360  CVD1360     0.1166
      5  N2       -23.0670    7.5150   18.2230 N.3   1360  CVD1360    -0.3102
      6  O2       -23.9610    5.4920   14.7120 O.3   1360  CVD1360    -0.4887
      7  C3       -23.6140    4.9180   13.5320 C.ar  1360  CVD1360     0.1303
      8  O3       -23.5320    9.8020   20.0770 O.3   1360  CVD1360    -0.4870
      9  C4       -23.8140    5.5820   12.3400 C.ar  1360  CVD1360     0.0490
     10  O4       -24.2610   12.3360   20.9420 O.3   1360  CVD1360    -0.4915
     11  C5       -24.2090    6.8800   12.0720 C.ar  1360  CVD1360     0.0109
     12  C6       -23.4660    4.9890   11.1600 C.ar  1360  CVD1360     0.0510
     13  C7       -24.1700    7.0780   10.7090 C.ar  1360  CVD1360     0.0476
     14  C8       -24.6580    7.8800   12.9000 C.ar  1360  CVD1360    -0.0519
     15  C9       -24.5430    8.3010   10.1780 C.ar  1360  CVD1360    -0.0378
     16  C10      -25.0340    9.3340   10.9980 C.ar  1360  CVD1360    -0.0598
     17  C11      -25.0810    9.1260   12.3520 C.ar  1360  CVD1360    -0.0611
     18  C12      -22.9870    3.7100   11.1570 C.ar  1360  CVD1360    -0.0375
     19  C13      -22.8340    3.0290   12.3140 C.ar  1360  CVD1360    -0.0563
     20  C14      -23.1590    3.6160   13.5260 C.ar  1360  CVD1360    -0.0192
     21  C15      -23.3840    6.9770   16.8760 C.3   1360  CVD1360     0.0253
     22  C16      -22.5900    8.9380   18.0840 C.3   1360  CVD1360     0.0302
     23  C17      -22.2820    9.4440   19.4840 C.3   1360  CVD1360     0.1022
     24  C18      -23.6570   10.0730   21.4470 C.ar  1360  CVD1360     0.1619
     25  C19      -24.0180   11.3420   21.8860 C.ar  1360  CVD1360     0.1615
     26  C20      -24.1680   11.6210   23.2550 C.ar  1360  CVD1360    -0.0163
     27  C21      -23.9080   10.6520   24.1990 C.ar  1360  CVD1360    -0.0581
     28  C22      -23.5430    9.3810   23.7610 C.ar  1360  CVD1360    -0.0581
     29  C23      -23.4360    9.1020   22.3940 C.ar  1360  CVD1360    -0.0163
     30  C24      -24.0470   13.7110   21.3100 C.3   1360  CVD1360     0.0790
     31  H1       -25.2210    5.8310   17.0490 H     1360  CVD1360     0.0640
     32  HN1      -23.4720    5.6770    9.2230 H     1360  CVD1360     0.1659
     33  HO1      -23.9840    5.5810   19.0190 H     1360  CVD1360     0.2100
     34  H21      -24.3530    3.8620   15.9290 H     1360  CVD1360     0.0723
     35  H22      -22.6680    4.5270   16.0120 H     1360  CVD1360     0.0723
     36  HN2      -22.3420    6.9570   18.6500 H     1360  CVD1360     0.1221
     37  H8       -24.6910    7.7230   13.9680 H     1360  CVD1360     0.0624
     38  H9       -24.4600    8.4760    9.1160 H     1360  CVD1360     0.0638
     39  H10      -25.3630   10.2640   10.5570 H     1360  CVD1360     0.0618
     40  H11      -25.4400    9.9090   13.0040 H     1360  CVD1360     0.0618
     41  H12      -22.7260    3.2330   10.2240 H     1360  CVD1360     0.0638
     42  H13      -22.4550    2.0180   12.2990 H     1360  CVD1360     0.0619
     43  H14      -23.0620    3.0740   14.4550 H     1360  CVD1360     0.0654
     44 H151      -24.0120    7.6880   16.3400 H     1360  CVD1360     0.0450
     45 H152      -22.4580    6.7880   16.3330 H     1360  CVD1360     0.0450
     46 H161      -23.3820    9.5450   17.6450 H     1360  CVD1360     0.0457
     47 H162      -21.6810    8.9590   17.4830 H     1360  CVD1360     0.0457
     48 H171      -21.8210    8.6450   20.0650 H     1360  CVD1360     0.0709
     49 H172      -21.6460   10.3270   19.4190 H     1360  CVD1360     0.0709
     50  H20      -24.4890   12.6010   23.5740 H     1360  CVD1360     0.0655
     51  H21      -23.9890   10.8870   25.2500 H     1360  CVD1360     0.0619
     52  H22      -23.3400    8.6000   24.4790 H     1360  CVD1360     0.0619
     53  H23      -23.1740    8.1000   22.0890 H     1360  CVD1360     0.0655
     54 H241      -24.2820   14.3550   20.4630 H     1360  CVD1360     0.0660
     55 H242      -24.6920   13.9670   22.1500 H     1360  CVD1360     0.0660
     56 H243      -23.0050   13.8530   21.5960 H     1360  CVD1360     0.0660
@<TRIPOS>BOND
     1     1     4    1
     2     1    21    1
     3     1     3    1
     4     1    31    1
     5     2    12   ar
     6     2    13   ar
     7     2    32    1
     8     3    33    1
     9     4     6    1
    10     4    34    1
    11     4    35    1
    12     5    22    1
    13     5    21    1
    14     5    36    1
    15     6     7    1
    16     7     9   ar
    17     7    20   ar
    18     8    24    1
    19     8    23    1
    20     9    11   ar
    21     9    12   ar
    22    10    30    1
    23    10    25    1
    24    11    13   ar
    25    11    14   ar
    26    12    18   ar
    27    13    15   ar
    28    14    17   ar
    29    14    37    1
    30    15    16   ar
    31    15    38    1
    32    16    17   ar
    33    16    39    1
    34    17    40    1
    35    18    19   ar
    36    18    41    1
    37    19    20   ar
    38    19    42    1
    39    20    43    1
    40    21    44    1
    41    21    45    1
    42    22    23    1
    43    22    46    1
    44    22    47    1
    45    23    48    1
    46    23    49    1
    47    24    25   ar
    48    24    29   ar
    49    25    26   ar
    50    26    27   ar
    51    26    50    1
    52    27    28   ar
    53    27    51    1
    54    28    29   ar
    55    28    52    1
    56    29    53    1
    57    30    54    1
    58    30    55    1
    59    30    56    1
