@<TRIPOS>MOLECULE
C:\Users\porto\OneDrive\projekt\beta1\ligandy\L_4bvn.pdb L_4bvn.pdb 1
 42 43 0 0 0
SMALL
GASTEIGER

@<TRIPOS>ATOM
      1  C1       -24.3700    7.3120   10.9350 C.2   1361  P321361     0.1822
      2  N1       -23.8370    6.3670   10.1930 N.2   1361  P321361    -0.3633
      3  O1       -24.2370    5.1910   14.5270 O.2   1361  P321361    -0.4884
      4  C2       -24.4530    6.8860   12.2160 C.3   1361  P321361     0.0496
      5  N2       -23.2640    7.1880   18.1300 N.3   1361  P321361    -0.3088
      6  O2       -23.9270    4.4530   18.0220 O.3   1361  P321361    -0.3872
      7  C3       -23.9770    5.6410   12.2540 C.2   1361  P321361     0.0656
      8  N3       -25.0780    9.8390   10.0260 N.1   1361  P321361    -0.1885
      9  C4       -23.8460    4.7610   13.2670 C.2   1361  P321361     0.1336
     10  C5       -23.3650    3.5090   13.0030 C.2   1361  P321361    -0.0184
     11  C6       -22.9860    3.1350   11.7110 C.2   1361  P321361    -0.0489
     12  C7       -23.1670    4.0780   10.6870 C.2   1361  P321361     0.0031
     13  C8       -23.6440    5.3020   10.9710 C.1   1361  P321361    -0.0070
     14  C9       -23.7520    4.5060   15.6010 C.3   1361  P321361     0.1166
     15  C10      -24.1100    5.3080   16.8510 C.3   1361  P321361     0.1015
     16  C11      -23.1800    6.4820   16.8480 C.3   1361  P321361     0.0256
     17  C12      -22.7840    8.6340   18.0420 C.3   1361  P321361     0.0108
     18  C13      -22.5480    9.2680   19.4520 C.3   1361  P321361    -0.0473
     19  C14      -23.8560    9.5070   17.3200 C.3   1361  P321361    -0.0473
     20  C15      -21.4780    8.8190   17.2500 C.3   1361  P321361    -0.0473
     21  C16      -24.7590    8.6670   10.4690 C.1   1361  P321361     0.1289
     22  H21      -25.4960    6.8850   12.5310 H     1361  P321361     0.0403
     23  H22      -23.8430    7.5270   12.8520 H     1361  P321361     0.0403
     24  HN2      -22.6970    6.6840   18.7970 H     1361  P321361     0.1225
     25  HO2      -24.1490    4.9450   18.8160 H     1361  P321361     0.2100
     26  H5       -23.2720    2.7870   13.8010 H     1361  P321361     0.0654
     27  H6       -22.5720    2.1530   11.5320 H     1361  P321361     0.0625
     28  H7       -22.9230    3.8210    9.6670 H     1361  P321361     0.0725
     29  H91      -22.6680    4.4250   15.5200 H     1361  P321361     0.0723
     30  H92      -24.2270    3.5260   15.6510 H     1361  P321361     0.0723
     31  H10      -25.1440    5.6490   16.7940 H     1361  P321361     0.0640
     32 H111      -22.1590    6.1360   16.6910 H     1361  P321361     0.0451
     33 H112      -23.4550    7.1610   16.0410 H     1361  P321361     0.0451
     34 H131      -22.2070   10.2970   19.3360 H     1361  P321361     0.0247
     35 H132      -23.4800    9.2560   20.0170 H     1361  P321361     0.0247
     36 H133      -21.7920    8.6940   19.9870 H     1361  P321361     0.0247
     37 H141      -23.5060   10.5380   17.2610 H     1361  P321361     0.0247
     38 H142      -24.0210    9.1220   16.3140 H     1361  P321361     0.0247
     39 H143      -24.7910    9.4720   17.8800 H     1361  P321361     0.0247
     40 H151      -21.2070    9.8750   17.2360 H     1361  P321361     0.0247
     41 H152      -20.6810    8.2460   17.7240 H     1361  P321361     0.0247
     42 H153      -21.6190    8.4670   16.2280 H     1361  P321361     0.0247
@<TRIPOS>BOND
     1     1     4    1
     2     1    21    1
     3     1     2    2
     4     2    13    2
     5     3     9    1
     6     3    14    1
     7     4     7    1
     8     4    22    1
     9     4    23    1
    10     5    17    1
    11     5    16    1
    12     5    24    1
    13     6    15    1
    14     6    25    1
    15     7     9    1
    16     7    13    2
    17     8    21    3
    18     9    10    2
    19    10    11    1
    20    10    26    1
    21    11    12    2
    22    11    27    1
    23    12    13    1
    24    12    28    1
    25    14    15    1
    26    14    29    1
    27    14    30    1
    28    15    16    1
    29    15    31    1
    30    16    32    1
    31    16    33    1
    32    17    18    1
    33    17    19    1
    34    17    20    1
    35    18    34    1
    36    18    35    1
    37    18    36    1
    38    19    37    1
    39    19    38    1
    40    19    39    1
    41    20    40    1
    42    20    41    1
    43    20    42    1
