@<TRIPOS>MOLECULE
C:\Users\porto\OneDrive\projekt\beta1\ligandy\L_5a8e.pdb L_5a8e.pdb 1
 45 46 0 0 0
SMALL
GASTEIGER

@<TRIPOS>ATOM
      1  C1       -24.4440    7.4740   11.0570 C.ar  501  XTK501      0.1185
      2  N1       -23.8150    6.5170   10.3470 N.ar  501  XTK501     -0.3459
      3  O1       -24.4280    5.2010   14.8470 O.3   501  XTK501     -0.4887
      4  C2       -24.6510    7.1570   12.3880 C.ar  501  XTK501     -0.0151
      5  N2       -23.2870    7.4300   18.2910 N.3   501  XTK501     -0.3088
      6  O2       -23.8820    4.6800   18.4090 O.3   501  XTK501     -0.3872
      7  C3       -24.0950    5.8470   12.5050 C.ar  501  XTK501      0.0428
      8  N3       -25.1250    9.6510   10.0270 N.1   501  XTK501     -0.1893
      9  C4       -23.9410    4.8610   13.6120 C.ar  501  XTK501      0.1298
     10  C5       -23.3220    3.6230   13.3620 C.ar  501  XTK501     -0.0190
     11  C6       -22.8340    3.2800   12.1010 C.ar  501  XTK501     -0.0534
     12  C7       -22.9340    4.1450   11.0170 C.ar  501  XTK501     -0.0263
     13  C8       -23.5760    5.4720   11.1740 C.ar  501  XTK501      0.0539
     14  C9       -24.0810    4.5110   16.0480 C.3   501  XTK501      0.1166
     15  C10      -24.2510    5.4240   17.2450 C.3   501  XTK501      0.1015
     16  C11      -23.3910    6.6760   17.0570 C.3   501  XTK501      0.0256
     17  C12      -22.8310    8.8150   18.3290 C.3   501  XTK501      0.0108
     18  C13      -21.5270    8.9240   17.5390 C.3   501  XTK501     -0.0473
     19  C14      -22.5320    9.2050   19.7790 C.3   501  XTK501     -0.0473
     20  C15      -23.9300    9.7000   17.7270 C.3   501  XTK501     -0.0473
     21  C16      -24.8040    8.6500   10.5320 C.1   501  XTK501      0.1171
     22  C17      -22.3920    3.7640    9.6770 C.3   501  XTK501     -0.0377
     23  HN1      -23.6090    6.6660    9.3700 H     501  XTK501      0.1665
     24  H2       -25.1390    7.8640   13.0420 H     501  XTK501      0.0653
     25  HN2      -22.6690    6.8560   18.8480 H     501  XTK501      0.1225
     26  HO2      -23.9790    5.2330   19.1870 H     501  XTK501      0.2100
     27  H5       -23.2130    2.9030   14.1600 H     501  XTK501      0.0654
     28  H6       -22.3630    2.3200   11.9470 H     501  XTK501      0.0622
     29  H91      -23.0450    4.1790   15.9890 H     501  XTK501      0.0723
     30  H92      -24.7230    3.6380   16.1630 H     501  XTK501      0.0723
     31  H10      -25.2980    5.7180   17.3250 H     501  XTK501      0.0640
     32 H111      -22.3950    6.3850   16.7240 H     501  XTK501      0.0451
     33 H112      -23.8310    7.3050   16.2830 H     501  XTK501      0.0451
     34 H131      -21.1740    9.9550   17.5590 H     501  XTK501      0.0247
     35 H132      -20.7750    8.2750   17.9870 H     501  XTK501      0.0247
     36 H133      -21.7000    8.6200   16.5070 H     501  XTK501      0.0247
     37 H141      -22.1910   10.2400   19.8150 H     501  XTK501      0.0247
     38 H142      -23.4370    9.1010   20.3780 H     501  XTK501      0.0247
     39 H143      -21.7550    8.5530   20.1780 H     501  XTK501      0.0247
     40 H151      -23.6090   10.7420   17.7460 H     501  XTK501      0.0247
     41 H152      -24.1180    9.3970   16.6970 H     501  XTK501      0.0247
     42 H153      -24.8450    9.5920   18.3100 H     501  XTK501      0.0247
     43 H171      -22.5700    4.5740    8.9690 H     501  XTK501      0.0278
     44 H172      -21.3210    3.5800    9.7570 H     501  XTK501      0.0278
     45 H173      -22.8900    2.8600    9.3270 H     501  XTK501      0.0278
@<TRIPOS>BOND
     1     1     2   ar
     2     1     4   ar
     3     1    21    1
     4     2    13   ar
     5     2    23    1
     6     3    14    1
     7     3     9    1
     8     4     7   ar
     9     4    24    1
    10     5    17    1
    11     5    16    1
    12     5    25    1
    13     6    15    1
    14     6    26    1
    15     7     9   ar
    16     7    13   ar
    17     8    21    3
    18     9    10   ar
    19    10    11   ar
    20    10    27    1
    21    11    12   ar
    22    11    28    1
    23    12    22    1
    24    12    13   ar
    25    14    15    1
    26    14    29    1
    27    14    30    1
    28    15    16    1
    29    15    31    1
    30    16    32    1
    31    16    33    1
    32    17    18    1
    33    17    19    1
    34    17    20    1
    35    18    34    1
    36    18    35    1
    37    18    36    1
    38    19    37    1
    39    19    38    1
    40    19    39    1
    41    20    40    1
    42    20    41    1
    43    20    42    1
    44    22    43    1
    45    22    44    1
    46    22    45    1
