@<TRIPOS>MOLECULE
C:\Users\porto\OneDrive\projekt\beta1\ligandy\L_6h7j.pdb L_6h7j.pdb 1
 32 32 0 0 0
SMALL
GASTEIGER

@<TRIPOS>ATOM
      1  CAE      -23.5120    5.2440   16.3900 C.3   402  5FW402      0.0927
      2  CAF      -22.5980    6.4480   16.6490 C.3   402  5FW402      0.0263
      3  CAG      -22.1870    8.2950   18.2200 C.3   402  5FW402      0.0021
      4  CAH      -23.3340    4.7470   14.9490 C.ar  402  5FW402     -0.0143
      5  CAI      -22.6470    8.8470   19.5770 C.3   402  5FW402     -0.0499
      6  CAJ      -20.6520    8.3040   18.1240 C.3   402  5FW402     -0.0499
      7  CAK      -23.9410    5.4480   13.9050 C.ar  402  5FW402     -0.0109
      8  CAL      -22.5830    3.6040   14.6600 C.ar  402  5FW402     -0.0524
      9  CAM      -23.7890    5.0290   12.5840 C.ar  402  5FW402      0.1586
     10  CAN      -22.4390    3.1720   13.3430 C.ar  402  5FW402     -0.0162
     11  CAO      -23.0410    3.8850   12.3090 C.ar  402  5FW402      0.1582
     12  NAD      -22.7770    6.9500   18.0300 N.3   402  5FW402     -0.3110
     13  OAA      -23.1940    4.2250   17.3330 O.3   402  5FW402     -0.3859
     14  OAB      -24.3770    5.7240   11.5720 O.3   402  5FW402     -0.5033
     15  OAC      -22.8970    3.4600   11.0350 O.3   402  5FW402     -0.5033
     16  HAE      -24.5490    5.5490   16.5340 H     402  5FW402      0.0656
     17 HAF1      -22.8340    7.2420   15.9410 H     402  5FW402      0.0453
     18 HAF2      -21.5590    6.1530   16.5020 H     402  5FW402      0.0453
     19  HAG      -22.5780    8.9480   17.4400 H     402  5FW402      0.0455
     20 HAI1      -23.7360    8.8320   19.6260 H     402  5FW402      0.0245
     21 HAI2      -22.2400    8.2300   20.3780 H     402  5FW402      0.0245
     22 HAI3      -22.2920    9.8710   19.6920 H     402  5FW402      0.0245
     23 HAJ1      -20.2840    9.3190   18.2720 H     402  5FW402      0.0245
     24 HAJ2      -20.2360    7.6510   18.8910 H     402  5FW402      0.0245
     25 HAJ3      -20.3470    7.9480   17.1400 H     402  5FW402      0.0245
     26  HAK      -24.5350    6.3240   14.1170 H     402  5FW402      0.0659
     27  HAL      -22.1110    3.0510   15.4590 H     402  5FW402      0.0622
     28  HAN      -21.8610    2.2860   13.1250 H     402  5FW402      0.0655
     29 HNAD      -23.7630    7.0080   18.2420 H     402  5FW402      0.1223
     30 HOAA      -23.3140    4.5630   18.2230 H     402  5FW402      0.2103
     31 HOAB      -24.1730    5.3030   10.7340 H     402  5FW402      0.2923
     32 HOAC      -22.3580    2.6660   11.0210 H     402  5FW402      0.2923
@<TRIPOS>BOND
     1     1     4    1
     2     1    13    1
     3     1     2    1
     4     1    16    1
     5     2    12    1
     6     2    17    1
     7     2    18    1
     8     3     6    1
     9     3    12    1
    10     3     5    1
    11     3    19    1
    12     4     7   ar
    13     4     8   ar
    14     5    20    1
    15     5    21    1
    16     5    22    1
    17     6    23    1
    18     6    24    1
    19     6    25    1
    20     7     9   ar
    21     7    26    1
    22     8    10   ar
    23     8    27    1
    24     9    14    1
    25     9    11   ar
    26    10    11   ar
    27    10    28    1
    28    11    15    1
    29    12    29    1
    30    13    30    1
    31    14    31    1
    32    15    32    1
