@<TRIPOS>MOLECULE
C:\Users\porto\OneDrive\projekt\beta1\ligandy\L_6h7m.pdb L_6h7m.pdb 1
 38 38 0 0 0
SMALL
GASTEIGER

@<TRIPOS>ATOM
      1  C1       -23.6450    5.1110   16.5470 C.3   504  68H504      0.0926
      2  N1       -22.7700    6.8080   18.1050 N.3   504  68H504     -0.3086
      3  O1       -22.8560    3.3250   11.2120 O.3   504  68H504     -0.5064
      4  C2       -24.3880    5.8380   11.6580 C.3   504  68H504      0.0727
      5  O2       -23.4350    6.7390   11.0660 O.3   504  68H504     -0.3903
      6  C3       -22.7820    6.3560   16.7240 C.3   504  68H504      0.0266
      7  O3       -23.3700    4.1450   17.5690 O.3   504  68H504     -0.3859
      8  C4       -22.3840    8.1710   18.4620 C.3   504  68H504      0.0108
      9  C5       -23.4180    9.1530   17.8630 C.3   504  68H504     -0.0473
     10  C6       -20.9660    8.4690   17.9380 C.3   504  68H504     -0.0473
     11  C7       -22.3790    8.2570   19.9980 C.3   504  68H504     -0.0473
     12  C8       -23.4260    4.6180   15.1550 C.ar  504  68H504     -0.0174
     13  C9       -22.7170    3.4470   14.8780 C.ar  504  68H504     -0.0526
     14  C10      -22.5360    3.0170   13.5610 C.ar  504  68H504     -0.0195
     15  C11      -23.0450    3.7540   12.4860 C.ar  504  68H504      0.1222
     16  C12      -23.7900    5.0020   12.7680 C.ar  504  68H504      0.0195
     17  C13      -23.9510    5.3840   14.0980 C.ar  504  68H504     -0.0472
     18  H1       -24.6890    5.4100   16.6380 H     504  68H504      0.0656
     19  HN1      -22.1470    6.1520   18.5540 H     504  68H504      0.1225
     20  HO1      -23.2660    3.9420   10.6020 H     504  68H504      0.2921
     21  H21      -25.2310    6.4080   12.0480 H     504  68H504      0.0608
     22  H22      -24.7930    5.1810   10.8880 H     504  68H504      0.0608
     23  HO2      -23.8610    7.2450   10.3700 H     504  68H504      0.2098
     24  H31      -23.1600    7.1540   16.0850 H     504  68H504      0.0453
     25  H32      -21.7630    6.1390   16.4040 H     504  68H504      0.0453
     26  HO3      -23.9240    3.3720   17.4370 H     504  68H504      0.2103
     27  H51      -23.1420   10.1750   18.1220 H     504  68H504      0.0247
     28  H52      -23.4360    9.0460   16.7780 H     504  68H504      0.0247
     29  H53      -24.4060    8.9310   18.2660 H     504  68H504      0.0247
     30  H61      -20.6850    9.4870   18.2080 H     504  68H504      0.0247
     31  H62      -20.2590    7.7680   18.3820 H     504  68H504      0.0247
     32  H63      -20.9490    8.3630   16.8530 H     504  68H504      0.0247
     33  H71      -22.0950    9.2630   20.3050 H     504  68H504      0.0247
     34  H72      -23.3750    8.0290   20.3780 H     504  68H504      0.0247
     35  H73      -21.6640    7.5390   20.4000 H     504  68H504      0.0247
     36  H9       -22.3020    2.8630   15.6860 H     504  68H504      0.0622
     37  H10      -21.9960    2.1030   13.3610 H     504  68H504      0.0654
     38  H13      -24.4950    6.2930   14.3080 H     504  68H504      0.0626
@<TRIPOS>BOND
     1     1     6    1
     2     1     7    1
     3     1    12    1
     4     1    18    1
     5     2     8    1
     6     2     6    1
     7     2    19    1
     8     3    15    1
     9     3    20    1
    10     4    16    1
    11     4     5    1
    12     4    21    1
    13     4    22    1
    14     5    23    1
    15     6    24    1
    16     6    25    1
    17     7    26    1
    18     8     9    1
    19     8    10    1
    20     8    11    1
    21     9    27    1
    22     9    28    1
    23     9    29    1
    24    10    30    1
    25    10    31    1
    26    10    32    1
    27    11    33    1
    28    11    34    1
    29    11    35    1
    30    12    13   ar
    31    12    17   ar
    32    13    14   ar
    33    13    36    1
    34    14    15   ar
    35    14    37    1
    36    15    16   ar
    37    16    17   ar
    38    17    38    1
