@<TRIPOS>MOLECULE
C:\Users\porto\OneDrive\projekt\beta1\ligandy\L_6h7n.pdb L_6h7n.pdb 1
 49 50 0 0 0
SMALL
GASTEIGER

@<TRIPOS>ATOM
      1  C1       -25.1290   10.0850   22.8260 C.3   401  FVK401      0.0396
      2  N1       -23.9590    9.3530   22.3460 N.am  401  FVK401     -0.2813
      3  O1       -24.7070    9.3280   25.0780 O.3   401  FVK401     -0.3767
      4  C2       -24.9240   10.4750   24.2670 C.3   401  FVK401      0.0635
      5  N2       -22.4960    8.8760   20.6010 N.am  401  FVK401     -0.2980
      6  O2       -23.5680   10.8120   20.6630 O.2   401  FVK401     -0.2526
      7  C3       -23.5360    8.6460   24.6440 C.3   401  FVK401      0.0635
      8  N3       -22.7080    6.9800   18.5670 N.3   401  FVK401     -0.3119
      9  O3       -23.8200    4.6090   15.2220 O.3   401  FVK401     -0.4894
     10  C4       -23.6270    8.2150   23.2000 C.3   401  FVK401      0.0396
     11  O4       -22.2010    2.9180   10.2270 O.3   401  FVK401     -0.5068
     12  C5       -23.3240    9.7240   21.1810 C.2   401  FVK401      0.3024
     13  O5       -23.2660    4.2890   18.8000 O.3   401  FVK401     -0.3872
     14  C6       -21.8210    9.1740   19.3440 C.3   401  FVK401      0.0256
     15  C7       -21.6040    7.9400   18.4920 C.3   401  FVK401      0.0116
     16  C8       -22.8710    6.1950   17.3430 C.3   401  FVK401      0.0252
     17  C9       -23.6520    4.9090   17.5810 C.3   401  FVK401      0.1015
     18  C10      -23.4230    3.9500   16.4330 C.3   401  FVK401      0.1166
     19  C11      -23.3820    4.1370   14.0090 C.ar  401  FVK401      0.1209
     20  C12      -23.7540    4.8720   12.8910 C.ar  401  FVK401     -0.0165
     21  C13      -23.3580    4.4710   11.6230 C.ar  401  FVK401     -0.0167
     22  C14      -22.5930    3.3270   11.4620 C.ar  401  FVK401      0.1171
     23  C15      -22.2240    2.5930   12.5740 C.ar  401  FVK401     -0.0167
     24  C16      -22.6140    2.9910   13.8410 C.ar  401  FVK401     -0.0165
     25  H11      -26.0120    9.4520   22.7430 H     401  FVK401      0.0488
     26  H12      -25.2680   10.9820   22.2230 H     401  FVK401      0.0488
     27  H21      -25.8020   11.0120   24.6260 H     401  FVK401      0.0575
     28  H22      -24.0650   11.1420   24.3440 H     401  FVK401      0.0575
     29  HN2      -22.3090    7.9800   21.0290 H     401  FVK401      0.1503
     30  H31      -23.3720    7.7720   25.2740 H     401  FVK401      0.0575
     31  H32      -22.6700    9.2940   24.7750 H     401  FVK401      0.0575
     32  HN3      -23.5540    7.5010   18.7490 H     401  FVK401      0.1221
     33  H41      -22.6720    7.7920   22.8870 H     401  FVK401      0.0488
     34  H42      -24.3950    7.4480   23.0980 H     401  FVK401      0.0488
     35  HO4      -21.6830    2.1140   10.3050 H     401  FVK401      0.2921
     36  HO5      -23.7730    3.4830   18.9240 H     401  FVK401      0.2100
     37  H61      -20.8600    9.6450   19.5520 H     401  FVK401      0.0475
     38  H62      -22.4050    9.9030   18.7830 H     401  FVK401      0.0475
     39  H71      -21.4540    8.2380   17.4540 H     401  FVK401      0.0439
     40  H72      -20.6780    7.4510   18.7930 H     401  FVK401      0.0439
     41  H81      -21.8900    5.9530   16.9340 H     401  FVK401      0.0450
     42  H82      -23.3830    6.7970   16.5920 H     401  FVK401      0.0450
     43  H9       -24.7140    5.1480   17.6310 H     401  FVK401      0.0640
     44 H101      -22.3640    3.6960   16.3780 H     401  FVK401      0.0723
     45 H102      -24.0330    3.0580   16.5780 H     401  FVK401      0.0723
     46  H12      -24.3550    5.7620   13.0050 H     401  FVK401      0.0655
     47  H13      -23.6460    5.0510   10.7590 H     401  FVK401      0.0655
     48  H15      -21.6260    1.7010   12.4580 H     401  FVK401      0.0655
     49  H16      -22.3190    2.4080   14.7010 H     401  FVK401      0.0655
@<TRIPOS>BOND
     1     1     2    1
     2     1     4    1
     3     1    25    1
     4     1    26    1
     5     2    10    1
     6     2    12   am
     7     3     4    1
     8     3     7    1
     9     4    27    1
    10     4    28    1
    11     5    12   am
    12     5    14    1
    13     5    29    1
    14     6    12    2
    15     7    10    1
    16     7    30    1
    17     7    31    1
    18     8    16    1
    19     8    15    1
    20     8    32    1
    21     9    18    1
    22     9    19    1
    23    10    33    1
    24    10    34    1
    25    11    22    1
    26    11    35    1
    27    13    17    1
    28    13    36    1
    29    14    15    1
    30    14    37    1
    31    14    38    1
    32    15    39    1
    33    15    40    1
    34    16    17    1
    35    16    41    1
    36    16    42    1
    37    17    18    1
    38    17    43    1
    39    18    44    1
    40    18    45    1
    41    19    20   ar
    42    19    24   ar
    43    20    21   ar
    44    20    46    1
    45    21    22   ar
    46    21    47    1
    47    22    23   ar
    48    23    24   ar
    49    23    48    1
    50    24    49    1
