@<TRIPOS>MOLECULE
C:\Users\porto\OneDrive\projekt\beta1\ligandy\L_6ibl.pdb L_6ibl.pdb 1
 49 50 0 0 0
SMALL
GASTEIGER

@<TRIPOS>ATOM
      1  C1       -21.0750    8.5240   17.9290 C.3   501  H98501     -0.0494
      2  N1       -22.8660    6.7980   18.2050 N.3   501  H98501     -0.3104
      3  O1       -25.0750   13.9600   19.9560 O.3   501  H98501     -0.4951
      4  C2       -22.5320    8.2360   18.3390 C.3   501  H98501      0.0089
      5  N2       -24.0360    5.6180   11.6520 N.am  501  H98501     -0.2852
      6  O2       -22.9260    3.2230   11.2700 O.3   501  H98501     -0.5049
      7  C3       -22.8440    8.7260   19.7700 C.3   501  H98501     -0.0125
      8  O3       -24.6450    7.5760   10.6940 O.2   501  H98501     -0.2792
      9  C4       -23.4450   10.1150   19.8230 C.ar  501  H98501     -0.0457
     10  O4       -23.3600    4.0900   17.6290 O.3   501  H98501     -0.3859
     11  C5       -24.8030   10.3150   19.5890 C.ar  501  H98501     -0.0551
     12  C6       -25.3710   11.5790   19.6350 C.ar  501  H98501     -0.0197
     13  C7       -24.5680   12.6830   19.9180 C.ar  501  H98501      0.1201
     14  C8       -23.2080   12.5000   20.1670 C.ar  501  H98501     -0.0197
     15  C9       -22.6590   11.2250   20.1120 C.ar  501  H98501     -0.0551
     16  C10      -25.9720   14.4040   18.9330 C.3   501  H98501      0.0788
     17  C11      -22.7790    6.2730   16.8380 C.3   501  H98501      0.0264
     18  C12      -23.6480    5.0380   16.6090 C.3   501  H98501      0.0927
     19  C13      -23.4340    4.5400   15.1830 C.ar  501  H98501     -0.0160
     20  C14      -23.8400    5.3200   14.1010 C.ar  501  H98501     -0.0312
     21  C15      -23.6590    4.8750   12.7930 C.ar  501  H98501      0.0755
     22  C16      -23.0800    3.6240   12.5530 C.ar  501  H98501      0.1380
     23  C17      -22.6670    2.8490   13.6350 C.ar  501  H98501     -0.0180
     24  C18      -22.8440    3.3080   14.9250 C.ar  501  H98501     -0.0525
     25  C19      -24.7380    6.7480   11.5870 C.2   501  H98501      0.2042
     26  H11      -20.8690    9.5880   18.0410 H     501  H98501      0.0245
     27  H12      -20.3980    7.9540   18.5660 H     501  H98501      0.0245
     28  H13      -20.9250    8.2330   16.8890 H     501  H98501      0.0245
     29  HN1      -23.8080    6.6840   18.5510 H     501  H98501      0.1223
     30  H2       -23.1790    8.7870   17.6560 H     501  H98501      0.0461
     31  HN2      -23.6990    5.1830   10.8050 H     501  H98501      0.1546
     32  HO2      -22.5200    2.3530   11.2530 H     501  H98501      0.2922
     33  H31      -21.9320    8.7040   20.3670 H     501  H98501      0.0328
     34  H32      -23.5200    8.0210   20.2540 H     501  H98501      0.0328
     35  HO4      -23.8990    3.3060   17.4990 H     501  H98501      0.2103
     36  H5       -25.4420    9.4740   19.3650 H     501  H98501      0.0621
     37  H6       -26.4280   11.7030   19.4520 H     501  H98501      0.0654
     38  H8       -22.5830   13.3490   20.4020 H     501  H98501      0.0654
     39  H9       -21.6020   11.1040   20.2990 H     501  H98501      0.0621
     40 H101      -26.2660   15.4350   19.1290 H     501  H98501      0.0660
     41 H102      -25.4760   14.3460   17.9640 H     501  H98501      0.0660
     42 H103      -26.8580   13.7690   18.9250 H     501  H98501      0.0660
     43 H111      -21.7410    6.0330   16.6080 H     501  H98501      0.0453
     44 H112      -23.0650    7.0530   16.1320 H     501  H98501      0.0453
     45  H12      -24.6920    5.3360   16.7100 H     501  H98501      0.0656
     46  H14      -24.3010    6.2820   14.2710 H     501  H98501      0.0641
     47  H17      -22.2070    1.8870   13.4660 H     501  H98501      0.0655
     48  H18      -22.5120    2.6860   15.7430 H     501  H98501      0.0622
     49  H19      -25.4520    6.9850   12.3620 H     501  H98501      0.1255
@<TRIPOS>BOND
     1     1     4    1
     2     1    26    1
     3     1    27    1
     4     1    28    1
     5     2    17    1
     6     2     4    1
     7     2    29    1
     8     3    16    1
     9     3    13    1
    10     4     7    1
    11     4    30    1
    12     5    25   am
    13     5    21    1
    14     5    31    1
    15     6    22    1
    16     6    32    1
    17     7     9    1
    18     7    33    1
    19     7    34    1
    20     8    25    2
    21     9    11   ar
    22     9    15   ar
    23    10    18    1
    24    10    35    1
    25    11    12   ar
    26    11    36    1
    27    12    13   ar
    28    12    37    1
    29    13    14   ar
    30    14    15   ar
    31    14    38    1
    32    15    39    1
    33    16    40    1
    34    16    41    1
    35    16    42    1
    36    17    18    1
    37    17    43    1
    38    17    44    1
    39    18    19    1
    40    18    45    1
    41    19    20   ar
    42    19    24   ar
    43    20    21   ar
    44    20    46    1
    45    21    22   ar
    46    22    23   ar
    47    23    24   ar
    48    23    47    1
    49    24    48    1
    50    25    49    1
