#       Name:                C:\Users\porto\OneDrive\projekt\beta1\ligandy\L_6ibl.pdb L_6ibl.pdb 1
#       Creating user name   student
#       Creation time:       Wed Apr 10 11:46:19 2019


#       File generated by GOLD software.
#

@<TRIPOS>MOLECULE
C:\Users\porto\OneDrive\projekt\beta1\ligandy\L_6ibl.pdb L_6ibl.pdb 1|6ibl|mol2|1|dock2
    58    59     1
SMALL
GASTEIGER


@<TRIPOS>ATOM
      1 C1         -21.8186   7.5503  15.3211 C.3            1 <1>               -0.0494
      2 N1         -23.1864   8.3507  17.2579 N.3            1 <1>               -0.3104
      3 O1         -22.6608   1.9103  12.7051 O.3            1 <1>               -0.4951
      4 C2         -22.7503   7.1631  16.4855 C.3            1 <1>                0.0089
      5 N2         -24.2104   8.1432  23.1977 N.am           1 <1>               -0.2852
      6 O2         -26.7250   8.8007  22.5988 O.3            1 <1>               -0.5049
      7 C3         -23.9774   6.3559  16.0083 C.3            1 <1>               -0.0125
      8 O3         -22.1673   8.9140  23.7927 O.2            1 <1>               -0.2792
      9 C4         -23.6276   5.1785  15.1223 C.ar           1 <1>               -0.0457
     10 O4         -21.4854  10.7786  19.4671 O.3            1 <1>               -0.3859
     11 C5         -24.1883   5.0472  13.8546 C.ar           1 <1>               -0.0551
     12 C6         -23.8786   3.9772  13.0290 C.ar           1 <1>               -0.0197
     13 C7         -22.9872   3.0019  13.4740 C.ar           1 <1>                0.1201
     14 C8         -22.4067   3.1235  14.7362 C.ar           1 <1>               -0.0197
     15 C9         -22.7342   4.2020  15.5485 C.ar           1 <1>               -0.0551
     16 C10        -23.6062   1.3890  11.7655 C.3            1 <1>                0.0788
     17 C11        -22.1831   8.8794  18.1884 C.3            1 <1>                0.0264
     18 C12        -22.6298  10.1571  18.8961 C.3            1 <1>                0.0927
     19 C13        -23.7404   9.8132  19.8838 C.ar           1 <1>               -0.0160
     20 C14        -23.4405   9.1410  21.0679 C.ar           1 <1>               -0.0312
     21 C15        -24.4451   8.8125  21.9759 C.ar           1 <1>                0.0755
     22 C16        -25.7761   9.1413  21.6964 C.ar           1 <1>                0.1380
     23 C17        -26.0736   9.8205  20.5166 C.ar           1 <1>               -0.0180
     24 C18        -25.0659  10.1480  19.6315 C.ar           1 <1>               -0.0525
     25 C19        -23.1500   8.2189  24.0000 C.2            1 <1>                0.2042
     26 H11        -21.5801   6.6631  14.7354 H              1 <1>                0.0245
     27 H12        -22.3162   8.2827  14.6847 H              1 <1>                0.0245
     28 H13        -20.8989   7.9809  15.7182 H              1 <1>                0.0245
     29 HN1        -24.0121   8.0775  17.7714 H              1 <1>                0.1223
     30 H2         -22.1810   6.5244  17.1614 H              1 <1>                0.0461
     31 HN2        -24.9856   7.5427  23.4402 H              1 <1>                0.1546
     32 HO2        -27.5930   8.8794  22.1959 H              1 <1>                0.2922
     33 H31        -24.6613   7.0176  15.4763 H              1 <1>                0.0328
     34 H32        -24.5367   6.0026  16.8746 H              1 <1>                0.0328
     35 HO4        -21.7553  11.5610  19.9539 H              1 <1>                0.2103
     36 H5         -24.8833   5.7897  13.4919 H              1 <1>                0.0621
     37 H6         -24.3270   3.9035  12.0494 H              1 <1>                0.0654
     38 H8         -21.7036   2.3797  15.0812 H              1 <1>                0.0654
     39 H9         -22.2812   4.2746  16.5264 H              1 <1>                0.0621
     40 H101       -23.7180   2.0872  10.9362 H              1 <1>                0.0660
     41 H102       -23.2521   0.4299  11.3873 H              1 <1>                0.0660
     42 H103       -24.5696   1.2514  12.2567 H              1 <1>                0.0660
     43 H111       -21.2548   9.0695  17.6499 H              1 <1>                0.0453
     44 H112       -21.9428   8.1189  18.9317 H              1 <1>                0.0453
     45 H12        -23.0418  10.8326  18.1457 H              1 <1>                0.0656
     46 H14        -22.4193   8.8685  21.2909 H              1 <1>                0.0641
     47 H17        -27.0941  10.0925  20.2925 H              1 <1>                0.0655
     48 H18        -25.3269  10.6763  18.7265 H              1 <1>                0.0622
     49 H19        -23.1194   7.6383  24.9102 H              1 <1>                0.1255
     50 ****       -23.3540   9.0931  16.6092 LP             1 <1>                0.0000
     51 ****       -21.8431   2.1574  12.1852 LP             1 <1>                0.0000
     52 ****       -22.4420   1.1669  13.3372 LP             1 <1>                0.0000
     53 ****       -26.6678   9.4110  23.3890 LP             1 <1>                0.0000
     54 ****       -26.5794   7.8569  22.8954 LP             1 <1>                0.0000
     55 ****       -22.1204   9.4810  22.9703 LP             1 <1>                0.0000
     56 ****       -21.4096   8.9160  24.4452 LP             1 <1>                0.0000
     57 ****       -20.8509  11.0409  18.7400 LP             1 <1>                0.0000
     58 ****       -21.0338  10.1385  20.0887 LP             1 <1>                0.0000
@<TRIPOS>BOND
    1    1    4 1     
    2    1   26 1     
    3    1   27 1     
    4    1   28 1     
    5    2   17 1     
    6    2    4 1     
    7    2   29 1     
    8    3   16 1     
    9    3   13 1     
   10    4    7 1     
   11    4   30 1     
   12    5   25 am    
   13    5   21 1     
   14    5   31 1     
   15    6   22 1     
   16    6   32 1     
   17    7    9 1     
   18    7   33 1     
   19    7   34 1     
   20    8   25 2     
   21    9   11 ar    
   22    9   15 ar    
   23   10   18 1     
   24   10   35 1     
   25   11   12 ar    
   26   11   36 1     
   27   12   13 ar    
   28   12   37 1     
   29   13   14 ar    
   30   14   15 ar    
   31   14   38 1     
   32   15   39 1     
   33   16   40 1     
   34   16   41 1     
   35   16   42 1     
   36   17   18 1     
   37   17   43 1     
   38   17   44 1     
   39   18   19 1     
   40   18   45 1     
   41   19   20 ar    
   42   19   24 ar    
   43   20   21 ar    
   44   20   46 1     
   45   21   22 ar    
   46   22   23 ar    
   47   23   24 ar    
   48   23   47 1     
   49   24   48 1     
   50   25   49 1     
   51    2   50 1     
   52    3   51 1     
   53    3   52 1     
   54    6   53 1     
   55    6   54 1     
   56    8   55 1     
   57    8   56 1     
   58   10   57 1     
   59   10   58 1     
@<TRIPOS>SUBSTRUCTURE
      1 ****           1
@<TRIPOS>SET
LONE_PAIRS      STATIC     ATOMS    <user>   **** ""
9 50 51 52 53 54 55 56 57 58
DONOR_HYDROGENS      STATIC     ATOMS    <user>   **** ""
4 29 31 32 35
ATOM$BLUE        STATIC     ATOMS    COLORGROUP SYSTEM
9 50 51 52 53 54 55 56 57 58
ATOM$RED        STATIC     ATOMS    COLORGROUP SYSTEM
4 29 31 32 35
@<TRIPOS>COMMENT
> <Gold.Version>
5.6

> <Gold.Id.Protein>
unknown|bialko_beta1 1|pdb

> <Gold.Protein.ActiveResidues>
 ALA86   ASP87   VAL90   VAL94   VAL95   GLY98   ALA99   LEU101  VAL102  CYS114 
 GLU115  TRP117  THR118  SER119  LEU120  ASP121  VAL122  CYS124  VAL125  THR126 
 SER128  SER173  PHE174  ILE177  CYS199  ASP200  PHE201  TYR207  SER215  PHE299 
 TRP303  PHE306  PHE307  ASN310  PHE325  VAL326  ASN329  TRP330  GLY332  TYR333 
 SER336 

> <Gold.Score>
     Fitness  S(hb_ext) S(vdw_ext)  S(hb_int)    S(int)      intcor
     55.57       1.64      39.89       0.00      -0.93     -10.80

> <Gold.Goldscore.Fitness>
55.5690

> <Gold.Goldscore.Internal.Vdw>
-7.2135

> <Gold.Goldscore.Internal.Torsion>
-4.5141

> <Gold.Goldscore.External.Vdw>
39.8926

> <Gold.Goldscore.Internal.HBond>
0.0000

> <Gold.Goldscore.External.HBond>
1.6443

> <Gold.Goldscore.Internal.Correction>
-10.8000

> <Gold.Goldscore.Hbonds>
donor molecule, donor type, donor heavy atom, donor atom, acceptor molecule, acceptor atom, score
      L1  H     2    29       P1  2066  0.70
      L1  H     6    32       P1  2028  0.12

> <Gold.Goldscore.Internal.Vdw.Weighted>
-7.2135

> <Gold.Goldscore.Internal.Torsion.Weighted>
-4.5141

> <Gold.Goldscore.External.Vdw.Weighted>
54.8523

> <Gold.Goldscore.Internal.HBond.Weighted>
0.0000

> <Gold.Goldscore.External.HBond.Weighted>
1.6443

> <Gold.Goldscore.Internal.Correction.Weighted>
-10.8000

