#       Name:                plp ligand
#       Creating user name   student
#       Creation time:       Mon Mar 18 16:46:21 2019


#       File generated by GOLD software.
#

@<TRIPOS>MOLECULE
plp ligand
    60    63     1
SMALL
GASTEIGER


@<TRIPOS>ATOM
      1 C           -1.8816  -4.1409   3.1015 NONPOLAR       1 <1>               -0.0612
      2 C           -0.3488  -4.1715   3.0657 NONPOLAR       1 <1>               -0.0308
      3 C            0.1913  -5.5676   2.7481 NONPOLAR       1 <1>               -0.0455
      4 C           -0.0865  -5.9511   1.2907 NONPOLAR       1 <1>               -0.0308
      5 C            0.5392  -7.3064   0.9664 NONPOLAR       1 <1>               -0.0612
      6 C            0.4373  -4.8626   0.3388 NONPOLAR       1 <1>                0.0015
      7 N           -0.0953  -3.5232   0.6615 ACCEPTOR       1 <1>               -0.3018
      8 C            0.4443  -2.5444  -0.3007 NONPOLAR       1 <1>               -0.0011
      9 C           -0.0789  -1.1212  -0.0823 NONPOLAR       1 <1>               -0.0398
     10 C            0.4841  -0.1578  -1.1226 NONPOLAR       1 <1>               -0.0434
     11 C           -0.0847   1.2466  -0.9064 NONPOLAR       1 <1>                0.0270
     12 C            0.5109   2.2256  -1.8776 NONPOLAR       1 <1>                0.2323
     13 O            1.2576   1.8964  -2.7940 ACCEPTOR       1 <1>               -0.2723
     14 N            0.2363   3.5986  -1.6560 NONPOLAR       1 <1>               -0.2798
     15 C            1.1108   4.6222  -2.0620 NONPOLAR       1 <1>                0.0575
     16 C            2.3762   4.5633  -2.6861 NONPOLAR       1 <1>               -0.0371
     17 C            3.0510   5.7536  -2.9659 NONPOLAR       1 <1>               -0.0598
     18 C            2.4921   6.9789  -2.6347 NONPOLAR       1 <1>               -0.0611
     19 C            1.2461   7.0366  -2.0049 NONPOLAR       1 <1>               -0.0520
     20 C            0.5505   5.8438  -1.7046 NONPOLAR       1 <1>                0.0080
     21 C           -0.6932   5.5774  -1.0695 NONPOLAR       1 <1>                0.0080
     22 C           -1.6843   6.4295  -0.5276 NONPOLAR       1 <1>               -0.0520
     23 C           -2.8500   5.8968   0.0192 NONPOLAR       1 <1>               -0.0611
     24 C           -3.0417   4.5254   0.0311 NONPOLAR       1 <1>               -0.0598
     25 C           -2.0734   3.6617  -0.4920 NONPOLAR       1 <1>               -0.0371
     26 C           -0.8797   4.1894  -1.0340 NONPOLAR       1 <1>                0.0575
     27 C            0.2096  -3.1591   2.0552 NONPOLAR       1 <1>                0.0015
     28 H           -2.2658  -4.8762   3.8157 0ÿ˜o_          1 <1>                0.0233
     29 H           -2.3289  -4.3540   2.1256 0ÿ˜o_          1 <1>                0.0233
     30 H           -2.2372  -3.1533   3.4144 0ÿ˜o_          1 <1>                0.0233
     31 H            0.0057  -3.8866   4.0646 0ÿ˜o_          1 <1>                0.0311
     32 H           -0.2420  -6.3077   3.4307 0ÿ˜o_          1 <1>                0.0271
     33 H            1.2755  -5.5730   2.9262 0ÿ˜o_          1 <1>                0.0271
     34 H           -1.1699  -6.0502   1.1478 0ÿ˜o_          1 <1>                0.0311
     35 H            1.6301  -7.2757   1.0577 0ÿ˜o_          1 <1>                0.0233
     36 H            0.2919  -7.6117  -0.0555 0ÿ˜o_          1 <1>                0.0233
     37 H            0.1637  -8.0779   1.6470 0ÿ˜o_          1 <1>                0.0233
     38 H            0.1419  -5.1311  -0.6838 0ÿ˜o_          1 <1>                0.0429
     39 H            1.5358  -4.8496   0.3630 0ÿ˜o_          1 <1>                0.0429
     40 H            0.1523  -2.8548  -1.3129 0ÿ˜o_          1 <1>                0.0426
     41 H            1.5416  -2.5379  -0.2707 0ÿ˜o_          1 <1>                0.0426
     42 H            0.2148  -0.7451   0.9031 0ÿ˜o_          1 <1>                0.0278
     43 H           -1.1752  -1.1193  -0.1229 0ÿ˜o_          1 <1>                0.0278
     44 H            0.2275  -0.5061  -2.1308 0ÿ˜o_          1 <1>                0.0270
     45 H            1.5792  -0.1396  -1.0593 0ÿ˜o_          1 <1>                0.0270
     46 H            0.1359   1.5798   0.1147 0ÿ˜o_          1 <1>                0.0361
     47 H           -1.1580   1.1720  -1.0667 0ÿ˜o_          1 <1>                0.0361
     48 H            2.8389   3.6163  -2.9522 0ÿ˜o_          1 <1>                0.0638
     49 H            4.0252   5.7131  -3.4483 0ÿ˜o_          1 <1>                0.0618
     50 H            3.0256   7.8977  -2.8619 0ÿ˜o_          1 <1>                0.0618
     51 H            0.8189   8.0000  -1.7427 0ÿ˜o_          1 <1>                0.0624
     52 H           -1.5452   7.5074  -0.5509 0ÿ˜o_          1 <1>                0.0624
     53 H           -3.6121   6.5582   0.4228 0ÿ˜o_          1 <1>                0.0618
     54 H           -3.9614   4.1142   0.4416 0ÿ˜o_          1 <1>                0.0618
     55 H           -2.3046   2.6059  -0.4763 0ÿ˜o_          1 <1>                0.0638
     56 H           -0.2353  -2.1908   2.3065 0ÿ˜o_          1 <1>                0.0429
     57 H            1.2946  -3.0617   2.1936 0ÿ˜o_          1 <1>                0.0429
     58 ****        -1.0921  -3.5277   0.5808 0ÿ˜o_          1 <1>                0.0000
     59 ****         1.4973   0.9341  -2.9224 0ÿ˜o_          1 <1>                0.0000
     60 ****         1.6263   2.5904  -3.4123 0ÿ˜o_          1 <1>                0.0000
@<TRIPOS>BOND
    1    1    2 1     
    2    2    3 1     
    3    3    4 1     
    4    4    5 1     
    5    4    6 1     
    6    6    7 1     
    7    7    8 1     
    8    8    9 1     
    9    9   10 1     
   10   10   11 1     
   11   11   12 1     
   12   12   13 2     
   13   12   14 am    
   14   14   15 ar    
   15   15   16 ar    
   16   16   17 ar    
   17   17   18 ar    
   18   18   19 ar    
   19   19   20 ar    
   20   15   20 ar    
   21   20   21 ar    
   22   21   22 ar    
   23   22   23 ar    
   24   23   24 ar    
   25   24   25 ar    
   26   25   26 ar    
   27   14   26 ar    
   28   21   26 ar    
   29    7   27 1     
   30    2   27 1     
   31    1   28 1     
   32    1   29 1     
   33    1   30 1     
   34    2   31 1     
   35    3   32 1     
   36    3   33 1     
   37    4   34 1     
   38    5   35 1     
   39    5   36 1     
   40    5   37 1     
   41    6   38 1     
   42    6   39 1     
   43    8   40 1     
   44    8   41 1     
   45    9   42 1     
   46    9   43 1     
   47   10   44 1     
   48   10   45 1     
   49   11   46 1     
   50   11   47 1     
   51   16   48 1     
   52   17   49 1     
   53   18   50 1     
   54   19   51 1     
   55   22   52 1     
   56   23   53 1     
   57   24   54 1     
   58   25   55 1     
   59   27   56 1     
   60   27   57 1     
   61    7   58 1     
   62   13   59 1     
   63   13   60 1     
@<TRIPOS>SUBSTRUCTURE
      1 ****           1
@<TRIPOS>SET
LONE_PAIRS      STATIC     ATOMS    <user>   **** ""
3 58 59 60
DONOR_HYDROGENS      STATIC     ATOMS    <user>   **** ""
0
ATOM$BLUE        STATIC     ATOMS    COLORGROUP SYSTEM
3 58 59 60
ATOM$RED        STATIC     ATOMS    COLORGROUP SYSTEM
0
