#       Name:                C:\Users\porto\OneDrive\projekt\beta2\ligandy\L_3ny8.pdb L_3ny8.pdb 1
#       Creating user name   student
#       Creation time:       Mon Apr 08 15:45:56 2019


#       File generated by GOLD software.
#

@<TRIPOS>MOLECULE
C:\Users\porto\OneDrive\projekt\beta2\ligandy\L_3ny8.pdb L_3ny8.pdb 1|3ny8|mol2|1|dock1
    52    53     1
SMALL
GASTEIGER


@<TRIPOS>ATOM
      1 C1         -25.6600   9.1498   6.1253 C.3            1 <1>               -0.0268
      2 N1         -33.6345   6.8848   6.9609 N.3            1 <1>               -0.3087
      3 O1         -30.2488   9.6044   7.6725 O.3            1 <1>               -0.4891
      4 C2         -26.3637   7.8292   6.2876 C.3            1 <1>               -0.0449
      5 O2         -33.9122   9.4677   7.7051 O.3            1 <1>               -0.3869
      6 C3         -27.5558   8.0547   7.1923 C.3            1 <1>               -0.0237
      7 C4         -27.9290   9.5221   6.8642 C.ar           1 <1>               -0.0023
      8 C5         -26.8312  10.1411   6.2490 C.ar           1 <1>               -0.0378
      9 C6         -26.9364  11.4572   5.8153 C.ar           1 <1>               -0.0468
     10 C7         -25.7548  12.1192   5.1200 C.3            1 <1>               -0.0394
     11 C8         -28.1135  12.1737   5.9990 C.ar           1 <1>               -0.0551
     12 C9         -29.2137  11.5644   6.6003 C.ar           1 <1>               -0.0194
     13 C10        -29.1329  10.2282   7.0191 C.ar           1 <1>                0.1241
     14 C11        -31.5888  10.0799   7.5004 C.3            1 <1>                0.1169
     15 C12        -32.6064   8.9464   7.8075 C.3            1 <1>                0.1041
     16 C13        -32.4411   7.7209   6.8589 C.3            1 <1>                0.0342
     17 C14        -32.2983   8.1646   5.4091 C.3            1 <1>               -0.0472
     18 C15        -33.4071   5.4902   6.6301 C.3            1 <1>                0.0023
     19 C16        -34.2147   4.6195   7.5810 C.3            1 <1>               -0.0499
     20 C17        -33.8899   5.2120   5.2102 C.3            1 <1>               -0.0499
     21 H11        -25.2433   9.2124   5.1197 H              1 <1>                0.0313
     22 H12        -24.9768   9.2972   6.9618 H              1 <1>                0.0313
     23 HN1        -33.9857   6.9128   7.9070 H              1 <1>                0.1225
     24 H21        -25.6871   7.1118   6.7521 H              1 <1>                0.0272
     25 H22        -26.7076   7.4794   5.3144 H              1 <1>                0.0272
     26 HO2        -34.5494   8.7752   7.8934 H              1 <1>                0.2100
     27 H31        -27.2333   7.9909   8.2313 H              1 <1>                0.0314
     28 H32        -28.3702   7.3999   6.8812 H              1 <1>                0.0314
     29 H71        -26.0174  13.1431   4.8528 H              1 <1>                0.0278
     30 H72        -24.8965  12.1280   5.7907 H              1 <1>                0.0278
     31 H73        -25.5046  11.5610   4.2176 H              1 <1>                0.0278
     32 H8         -28.1753  13.2025   5.6759 H              1 <1>                0.0621
     33 H9         -30.1282  12.1216   6.7440 H              1 <1>                0.0654
     34 H111       -31.7246  10.4207   6.4743 H              1 <1>                0.0723
     35 H112       -31.7662  10.9192   8.1735 H              1 <1>                0.0723
     36 H12        -32.4490   8.6112   8.8326 H              1 <1>                0.0643
     37 H13        -31.5641   7.1447   7.1535 H              1 <1>                0.0484
     38 H141       -31.4130   8.7916   5.3060 H              1 <1>                0.0245
     39 H142       -32.1993   7.2887   4.7688 H              1 <1>                0.0245
     40 H143       -33.1808   8.7325   5.1137 H              1 <1>                0.0245
     41 H15        -32.3468   5.2535   6.7168 H              1 <1>                0.0455
     42 H161       -34.0502   3.5693   7.3407 H              1 <1>                0.0245
     43 H162       -33.8989   4.8104   8.6062 H              1 <1>                0.0245
     44 H163       -35.2746   4.8542   7.4782 H              1 <1>                0.0245
     45 H171       -33.7168   4.1634   4.9657 H              1 <1>                0.0245
     46 H172       -34.9553   5.4299   5.1386 H              1 <1>                0.0245
     47 H173       -33.3426   5.8426   4.5100 H              1 <1>                0.0245
     48 ****       -34.2833   7.2589   6.2982 LP             1 <1>                0.0000
     49 ****       -30.0595   9.6482   8.6534 LP             1 <1>                0.0000
     50 ****       -30.2497   8.6496   7.3754 LP             1 <1>                0.0000
     51 ****       -34.0609   9.8144   6.7789 LP             1 <1>                0.0000
     52 ****       -34.0260  10.2128   8.3622 LP             1 <1>                0.0000
@<TRIPOS>BOND
    1    1    4 1     
    2    1    8 1     
    3    1   21 1     
    4    1   22 1     
    5    2   16 1     
    6    2   18 1     
    7    2   23 1     
    8    3   13 1     
    9    3   14 1     
   10    4    6 1     
   11    4   24 1     
   12    4   25 1     
   13    5   15 1     
   14    5   26 1     
   15    6    7 1     
   16    6   27 1     
   17    6   28 1     
   18    7    8 ar    
   19    7   13 ar    
   20    8    9 ar    
   21    9   10 1     
   22    9   11 ar    
   23   10   29 1     
   24   10   30 1     
   25   10   31 1     
   26   11   12 ar    
   27   11   32 1     
   28   12   13 ar    
   29   12   33 1     
   30   14   15 1     
   31   14   34 1     
   32   14   35 1     
   33   15   16 1     
   34   15   36 1     
   35   16   17 1     
   36   16   37 1     
   37   17   38 1     
   38   17   39 1     
   39   17   40 1     
   40   18   19 1     
   41   18   20 1     
   42   18   41 1     
   43   19   42 1     
   44   19   43 1     
   45   19   44 1     
   46   20   45 1     
   47   20   46 1     
   48   20   47 1     
   49    2   48 1     
   50    3   49 1     
   51    3   50 1     
   52    5   51 1     
   53    5   52 1     
@<TRIPOS>SUBSTRUCTURE
      1 ****           1
@<TRIPOS>SET
LONE_PAIRS      STATIC     ATOMS    <user>   **** ""
5 48 49 50 51 52
DONOR_HYDROGENS      STATIC     ATOMS    <user>   **** ""
2 23 26
ATOM$BLUE        STATIC     ATOMS    COLORGROUP SYSTEM
5 48 49 50 51 52
ATOM$RED        STATIC     ATOMS    COLORGROUP SYSTEM
2 23 26
@<TRIPOS>COMMENT
> <Gold.Version>
5.5

> <Gold.Id.Protein>
unknown|dok_beta2|pdb

> <Gold.Protein.RotatedTorsions>
[ 4175 4166 4165 4163 ] final   69.64 input -179.98 | X-H torsion
[ 1294 1290 1288 1285 ] final -113.00 input -179.99 | X-H torsion
[ 4033 4024 4023 4021 ] final   24.01 input  179.98 | X-H torsion
[ 1412 1408 1406 1403 ] final -167.02 input -179.99 | X-H torsion
[ 2830 2825 2824 2821 ] final   82.13 input -179.98 | X-H torsion
[ 2723 2714 2713 2711 ] final   33.79 input -179.98 | X-H torsion
[ 2773 2768 2767 2764 ] final   95.31 input  180.00 | X-H torsion

> <Gold.Protein.ActiveResidues>
 TRP109  THR110  ASP113  VAL114  VAL117  THR118  PHE193  TYR199  SER203  SER207 
 PHE208  TRP286  PHE289  PHE290  ASN293  TYR308  ASN312  TYR316 

> <Gold.Protein.RotatedAtoms>
  -34.0422    4.1132    2.4963 H   0  0  0  0  0  0  0  0  0  0  0  0  # atno 1294 bound_to 1290
  -26.9834   14.6812    1.7913 H   0  0  0  0  0  0  0  0  0  0  0  0  # atno 1412 bound_to 1408
  -26.4351    7.5417    1.1494 H   0  0  0  0  0  0  0  0  0  0  0  0  # atno 2723 bound_to 2714
  -24.0052   10.0448    2.1609 H   0  0  0  0  0  0  0  0  0  0  0  0  # atno 2773 bound_to 2768
  -23.5602   12.9798    3.0242 H   0  0  0  0  0  0  0  0  0  0  0  0  # atno 2830 bound_to 2825
  -29.3380    6.0294   10.6288 H   0  0  0  0  0  0  0  0  0  0  0  0  # atno 4033 bound_to 4024
  -37.6884    8.8286    7.3356 H   0  0  0  0  0  0  0  0  0  0  0  0  # atno 4175 bound_to 4166
  -36.8698    8.2922    8.6018 LP  0  0  0  0  0  0  0  0  0  0  0  0  # atno 4597 bound_to 4166
  -36.1601    9.2720    7.5050 LP  0  0  0  0  0  0  0  0  0  0  0  0  # atno 4598 bound_to 4166
  -34.5514    3.6422    1.0540 LP  0  0  0  0  0  0  0  0  0  0  0  0  # atno 4603 bound_to 1290
  -35.4116    4.7184    1.9307 LP  0  0  0  0  0  0  0  0  0  0  0  0  # atno 4604 bound_to 1290
  -27.9118    5.5378   11.1641 LP  0  0  0  0  0  0  0  0  0  0  0  0  # atno 4607 bound_to 4024
  -28.4373    7.0542   11.4659 LP  0  0  0  0  0  0  0  0  0  0  0  0  # atno 4608 bound_to 4024
  -28.3797   14.6842    2.5732 LP  0  0  0  0  0  0  0  0  0  0  0  0  # atno 4611 bound_to 1408
  -27.0167   15.2136    3.3001 LP  0  0  0  0  0  0  0  0  0  0  0  0  # atno 4612 bound_to 1408
  -23.9363   14.1711    2.0243 LP  0  0  0  0  0  0  0  0  0  0  0  0  # atno 4613 bound_to 2825
  -25.0912   13.1702    2.5997 LP  0  0  0  0  0  0  0  0  0  0  0  0  # atno 4614 bound_to 2825

> <Gold.Score>
     Score     S(PLP)   S(hbond)     S(cho)   S(metal)  DE(clash)   DE(tors)     intcor
     56.83     -56.27       0.18       0.00       0.00       0.00       0.00       0.00

> <Gold.PLP.Fitness>
56.8271

> <Gold.PLP.PLP>
-56.2748

> <Gold.PLP.part.hbond>
-4.4757

> <Gold.PLP.part.metal>
0.0000

> <Gold.PLP.part.buried>
1.1644

> <Gold.PLP.part.nonpolar>
-53.8403

> <Gold.PLP.part.repulsive>
0.0172

> <Gold.PLP.ligand.clash>
0.0000

> <Gold.PLP.ligand.torsion>
0.0000

> <Gold.PLP.Chemscore.Hbond>
0.1841

> <Gold.PLP.Chemscore.CHOScore>
0.0000

> <Gold.PLP.Chemscore.Metal>
0.0000

> <Gold.Chemscore.Hbonds>
donor molecule, donor type, donor heavy atom, donor atom, acceptor molecule, acceptor atom, score
      L1  H     5    26       P1  4166  0.02
      P1  H  4097  4104       L1     5  0.16

> <Gold.PLP.Chemscore.Internal.Correction>
0.0000

