#       Name:                C:\Users\porto\OneDrive\projekt\beta1\ligandy\L_5a8e.pdb L_5a8e.pdb 1
#       Creating user name   student
#       Creation time:       Mon Apr 08 14:36:54 2019


#       File generated by GOLD software.
#

@<TRIPOS>MOLECULE
C:\Users\porto\OneDrive\projekt\beta1\ligandy\L_5a8e.pdb L_5a8e.pdb 1|5a8e|mol2|1|dock1
    51    52     1
SMALL
GASTEIGER


@<TRIPOS>ATOM
      1 C1         -24.1814   7.8505  10.9313 C.ar           1 <1>                0.1185
      2 N1         -23.5596   6.9166  10.1851 N.pl3          1 <1>               -0.3459
      3 O1         -24.3074   5.3810  14.5942 O.3            1 <1>               -0.4887
      4 C2         -24.4265   7.4691  12.2387 C.ar           1 <1>               -0.0151
      5 N2         -23.1920   7.3954  18.1760 N.3            1 <1>               -0.3088
      6 O2         -23.8560   4.6590  18.1343 O.3            1 <1>               -0.3872
      7 C3         -23.9052   6.1410  12.2977 C.ar           1 <1>                0.0428
      8 N3         -24.7856  10.0954  10.0044 N.1            1 <1>               -0.1893
      9 C4         -23.8006   5.0944  13.3536 C.ar           1 <1>                0.1298
     10 C5         -23.2062   3.8560  13.0514 C.ar           1 <1>               -0.0190
     11 C6         -22.6978   3.5677  11.7847 C.ar           1 <1>               -0.0534
     12 C7         -22.7519   4.4910  10.7465 C.ar           1 <1>               -0.0263
     13 C8         -23.3650   5.8237  10.9601 C.ar           1 <1>                0.0539
     14 C9         -24.0048   4.6200  15.7639 C.3            1 <1>                0.1166
     15 C10        -24.1801   5.4725  17.0039 C.3            1 <1>                0.1015
     16 C11        -23.2859   6.7105  16.9016 C.3            1 <1>                0.0256
     17 C12        -22.7036   8.7644  18.2977 C.3            1 <1>                0.0108
     18 C13        -21.3795   8.8818  17.5430 C.3            1 <1>               -0.0473
     19 C14        -22.4285   9.0696  19.7725 C.3            1 <1>               -0.0473
     20 C15        -23.7667   9.7076  17.7201 C.3            1 <1>               -0.0473
     21 C16        -24.5006   9.0613  10.4621 C.1            1 <1>                0.1171
     22 C17        -22.1887   4.1676   9.4001 C.3            1 <1>               -0.0377
     23 HN1        -23.3277   7.1117   9.2221 H              1 <1>                0.1665
     24 H2         -24.9121   8.1527  12.9188 H              1 <1>                0.0653
     25 HN2        -22.6010   6.7773  18.7148 H              1 <1>                0.1225
     26 HO2        -23.9574   5.1725  18.9384 H              1 <1>                0.2100
     27 H5         -23.1330   3.0923  13.8120 H              1 <1>                0.0654
     28 H6         -22.2468   2.6055  11.5900 H              1 <1>                0.0622
     29 H91        -22.9761   4.2653  15.7097 H              1 <1>                0.0723
     30 H92        -24.6703   3.7587  15.8183 H              1 <1>                0.0723
     31 H10        -25.2212   5.7884  17.0768 H              1 <1>                0.0640
     32 H111       -22.2899   6.4122  16.5752 H              1 <1>                0.0451
     33 H112       -23.6927   7.3904  16.1529 H              1 <1>                0.0451
     34 H131       -21.0022   9.9010  17.6256 H              1 <1>                0.0247
     35 H132       -20.6540   8.1912  17.9719 H              1 <1>                0.0247
     36 H133       -21.5361   8.6372  16.4927 H              1 <1>                0.0247
     37 H141       -22.0635  10.0923  19.8710 H              1 <1>                0.0247
     38 H142       -23.3493   8.9572  20.3454 H              1 <1>                0.0247
     39 H143       -21.6769   8.3780  20.1529 H              1 <1>                0.0247
     40 H151       -23.4211  10.7387  17.8016 H              1 <1>                0.0247
     41 H152       -23.9383   9.4643  16.6716 H              1 <1>                0.0247
     42 H153       -24.6972   9.5923  18.2766 H              1 <1>                0.0247
     43 H171       -22.3308   5.0181   8.7326 H              1 <1>                0.0278
     44 H172       -21.1246   3.9524   9.4933 H              1 <1>                0.0278
     45 H173       -22.7003   3.2962   8.9917 H              1 <1>                0.0278
     46 ****       -24.0220   6.3179  14.7962 LP             1 <1>                0.0000
     47 ****       -25.3021   5.3491  14.4971 LP             1 <1>                0.0000
     48 ****       -24.1356   7.5559  18.4658 LP             1 <1>                0.0000
     49 ****       -22.9102   4.3435  18.0575 LP             1 <1>                0.0000
     50 ****       -24.4693   3.8697  18.1635 LP             1 <1>                0.0000
     51 ****       -25.0300  10.9821   9.6119 LP             1 <1>                0.0000
@<TRIPOS>BOND
    1    1    2 ar    
    2    1    4 ar    
    3    1   21 1     
    4    2   13 ar    
    5    2   23 1     
    6    3   14 1     
    7    3    9 1     
    8    4    7 ar    
    9    4   24 1     
   10    5   17 1     
   11    5   16 1     
   12    5   25 1     
   13    6   15 1     
   14    6   26 1     
   15    7    9 ar    
   16    7   13 ar    
   17    8   21 3     
   18    9   10 ar    
   19   10   11 ar    
   20   10   27 1     
   21   11   12 ar    
   22   11   28 1     
   23   12   22 1     
   24   12   13 ar    
   25   14   15 1     
   26   14   29 1     
   27   14   30 1     
   28   15   16 1     
   29   15   31 1     
   30   16   32 1     
   31   16   33 1     
   32   17   18 1     
   33   17   19 1     
   34   17   20 1     
   35   18   34 1     
   36   18   35 1     
   37   18   36 1     
   38   19   37 1     
   39   19   38 1     
   40   19   39 1     
   41   20   40 1     
   42   20   41 1     
   43   20   42 1     
   44   22   43 1     
   45   22   44 1     
   46   22   45 1     
   47    3   46 1     
   48    3   47 1     
   49    5   48 1     
   50    6   49 1     
   51    6   50 1     
   52    8   51 1     
@<TRIPOS>SUBSTRUCTURE
      1 ****           1
@<TRIPOS>SET
LONE_PAIRS      STATIC     ATOMS    <user>   **** ""
6 46 47 48 49 50 51
DONOR_HYDROGENS      STATIC     ATOMS    <user>   **** ""
3 23 25 26
ATOM$BLUE        STATIC     ATOMS    COLORGROUP SYSTEM
6 46 47 48 49 50 51
ATOM$RED        STATIC     ATOMS    COLORGROUP SYSTEM
3 23 25 26
@<TRIPOS>COMMENT
> <Gold.Version>
5.5

> <Gold.Id.Protein>
unknown|bialko_beta1|pdb

> <Gold.Protein.ActiveResidues>
 ALA86   ASP87   VAL90   VAL94   VAL95   GLY98   ALA99   LEU101  VAL102  CYS114 
 GLU115  TRP117  THR118  SER119  LEU120  ASP121  VAL122  CYS124  VAL125  THR126 
 SER128  SER173  PHE174  ILE177  CYS199  ASP200  PHE201  TYR207  SER215  PHE299 
 TRP303  PHE306  PHE307  ASN310  PHE325  VAL326  ASN329  TRP330  GLY332  TYR333 
 SER336 

> <Gold.Score>
     Score     S(PLP)   S(hbond)     S(cho)   S(metal)  DE(clash)   DE(tors)     intcor
     62.10     -62.10       0.00       0.00       0.00       0.00       0.00       0.00

> <Gold.PLP.Fitness>
62.0959

> <Gold.PLP.PLP>
-62.0959

> <Gold.PLP.part.hbond>
-5.9140

> <Gold.PLP.part.metal>
0.0000

> <Gold.PLP.part.buried>
-3.6142

> <Gold.PLP.part.nonpolar>
-53.9443

> <Gold.PLP.part.repulsive>
0.3257

> <Gold.PLP.ligand.clash>
0.0000

> <Gold.PLP.ligand.torsion>
0.0000

> <Gold.PLP.Chemscore.Hbond>
0.0000

> <Gold.PLP.Chemscore.CHOScore>
0.0000

> <Gold.PLP.Chemscore.Metal>
0.0000

> <Gold.PLP.Chemscore.Internal.Correction>
0.0000

