#       Name:                C:\Users\porto\OneDrive\projekt\beta2\ligandy\L_3d4s.pdb L_3d4s.pdb 1
#       Creating user name   student
#       Creation time:       Mon Apr 08 15:42:08 2019


#       File generated by GOLD software.
#

@<TRIPOS>MOLECULE
C:\Users\porto\OneDrive\projekt\beta2\ligandy\L_3d4s.pdb L_3d4s.pdb 1|3d4s|mol2|1|dock3
    54    55     1
SMALL
GASTEIGER


@<TRIPOS>ATOM
      1 O1         -25.8508   9.9017   5.2150 O.3            1 <1>               -0.3767
      2 C2         -26.3423   8.8522   6.0365 C.3            1 <1>                0.0634
      3 C3         -27.8517   8.9192   6.3309 C.3            1 <1>                0.0372
      4 N4         -28.3880  10.2525   6.4432 N.pl3          1 <1>               -0.3060
      5 C5         -27.7168  11.3338   5.7499 C.3            1 <1>                0.0372
      6 C6         -26.1954  11.1703   5.7388 C.3            1 <1>                0.0634
      7 C7         -29.6292  10.5012   6.9768 C.ar           1 <1>                0.1942
      8 N8         -29.9023  11.6770   7.5668 N.ar           1 <1>               -0.1717
      9 S9         -31.4583  11.6815   8.0863 S.2            1 <1>                0.1206
     10 N10        -31.9037  10.1831   7.6013 N.ar           1 <1>               -0.1530
     11 C11        -30.8666   9.6136   7.0058 C.ar           1 <1>                0.2652
     12 O12        -30.8961   8.3354   6.5021 O.3            1 <1>               -0.4710
     13 C13        -32.1957   7.7083   6.2974 C.3            1 <1>                0.1183
     14 C14        -32.1683   6.6383   7.3990 C.3            1 <1>                0.1016
     15 O15        -31.8507   7.1472   8.6618 O.3            1 <1>               -0.3872
     16 C16        -33.4973   5.9053   7.4216 C.3            1 <1>                0.0256
     17 N17        -34.5805   6.4312   8.2202 N.3            1 <1>               -0.3088
     18 C18        -35.0155   5.3459   9.1351 C.3            1 <1>                0.0108
     19 C19        -36.1525   5.8110  10.0327 C.3            1 <1>               -0.0473
     20 C20        -35.5159   4.1496   8.2854 C.3            1 <1>               -0.0473
     21 C21        -33.8252   4.9078  10.0129 C.3            1 <1>               -0.0473
     22 H21        -25.7919   8.8416   6.9772 H              1 <1>                0.0575
     23 H22        -26.1071   7.8930   5.5760 H              1 <1>                0.0575
     24 H31        -28.0654   8.3658   7.2456 H              1 <1>                0.0487
     25 H32        -28.3949   8.3763   5.5569 H              1 <1>                0.0487
     26 H51        -27.9758  12.2818   6.2211 H              1 <1>                0.0487
     27 H52        -28.0827  11.3893   4.7244 H              1 <1>                0.0487
     28 H61        -25.7512  11.9513   5.1216 H              1 <1>                0.0575
     29 H62        -25.8134  11.2597   6.7558 H              1 <1>                0.0575
     30 H131       -32.2050   7.2177   5.3237 H              1 <1>                0.0724
     31 H132       -32.9801   8.4316   6.5219 H              1 <1>                0.0724
     32 H14        -31.3981   5.9134   7.1338 H              1 <1>                0.0640
     33 HO15       -32.6590   7.3496   9.1384 H              1 <1>                0.2100
     34 H161       -33.3247   4.8657   7.6984 H              1 <1>                0.0451
     35 H162       -33.8447   5.7682   6.3977 H              1 <1>                0.0451
     36 HN17       -34.2557   7.2299   8.7456 H              1 <1>                0.1225
     37 H191       -36.4519   4.9967  10.6929 H              1 <1>                0.0247
     38 H192       -35.8196   6.6597  10.6309 H              1 <1>                0.0247
     39 H193       -37.0018   6.1108   9.4186 H              1 <1>                0.0247
     40 H201       -35.8387   3.3441   8.9455 H              1 <1>                0.0247
     41 H202       -36.3534   4.4690   7.6654 H              1 <1>                0.0247
     42 H203       -34.7072   3.7934   7.6467 H              1 <1>                0.0247
     43 H211       -34.1431   4.1114  10.6853 H              1 <1>                0.0247
     44 H212       -33.0176   4.5455   9.3763 H              1 <1>                0.0247
     45 H213       -33.4729   5.7571  10.5982 H              1 <1>                0.0247
     46 ****       -26.2431   9.8098   4.2998 LP             1 <1>                0.0000
     47 ****       -24.8547   9.8322   5.1592 LP             1 <1>                0.0000
     48 ****       -29.2564  12.4330   7.6728 LP             1 <1>                0.0000
     49 ****       -32.8043   9.7686   7.7322 LP             1 <1>                0.0000
     50 ****       -30.3827   7.7551   7.1343 LP             1 <1>                0.0000
     51 ****       -30.4328   8.3545   5.6161 LP             1 <1>                0.0000
     52 ****       -31.3074   7.9803   8.5583 LP             1 <1>                0.0000
     53 ****       -31.3243   6.4672   9.1723 LP             1 <1>                0.0000
     54 ****       -35.3441   6.7294   7.6475 LP             1 <1>                0.0000
@<TRIPOS>BOND
    1    1    2 1     
    2    1    6 1     
    3    2    3 1     
    4    2   22 1     
    5    2   23 1     
    6    3    4 1     
    7    3   24 1     
    8    3   25 1     
    9    4    7 1     
   10    4    5 1     
   11    5    6 1     
   12    5   26 1     
   13    5   27 1     
   14    6   28 1     
   15    6   29 1     
   16    7    8 ar    
   17    7   11 ar    
   18    8    9 ar    
   19    9   10 ar    
   20   10   11 ar    
   21   11   12 1     
   22   12   13 1     
   23   13   14 1     
   24   13   30 1     
   25   13   31 1     
   26   14   15 1     
   27   14   16 1     
   28   14   32 1     
   29   15   33 1     
   30   16   17 1     
   31   16   34 1     
   32   16   35 1     
   33   17   18 1     
   34   17   36 1     
   35   18   19 1     
   36   18   20 1     
   37   18   21 1     
   38   19   37 1     
   39   19   38 1     
   40   19   39 1     
   41   20   40 1     
   42   20   41 1     
   43   20   42 1     
   44   21   43 1     
   45   21   44 1     
   46   21   45 1     
   47    1   46 1     
   48    1   47 1     
   49    8   48 1     
   50   10   49 1     
   51   12   50 1     
   52   12   51 1     
   53   15   52 1     
   54   15   53 1     
   55   17   54 1     
@<TRIPOS>SUBSTRUCTURE
      1 ****           1
@<TRIPOS>SET
LONE_PAIRS      STATIC     ATOMS    <user>   **** ""
9 46 47 48 49 50 51 52 53 54
DONOR_HYDROGENS      STATIC     ATOMS    <user>   **** ""
2 33 36
ATOM$BLUE        STATIC     ATOMS    COLORGROUP SYSTEM
9 46 47 48 49 50 51 52 53 54
ATOM$RED        STATIC     ATOMS    COLORGROUP SYSTEM
2 33 36
@<TRIPOS>COMMENT
> <Gold.Version>
5.5

> <Gold.Id.Protein>
unknown|dok_beta2|pdb

> <Gold.Protein.RotatedTorsions>
[ 4175 4166 4165 4163 ] final  -96.63 input -179.98 | X-H torsion
[ 1294 1290 1288 1285 ] final   -7.86 input -179.99 | X-H torsion
[ 4033 4024 4023 4021 ] final   68.46 input  179.98 | X-H torsion
[ 1412 1408 1406 1403 ] final   33.64 input -179.99 | X-H torsion
[ 2830 2825 2824 2821 ] final   69.54 input -179.98 | X-H torsion
[ 2723 2714 2713 2711 ] final  164.90 input -179.98 | X-H torsion
[ 2773 2768 2767 2764 ] final -123.30 input  180.00 | X-H torsion

> <Gold.Protein.ActiveResidues>
 TRP109  THR110  ASP113  VAL114  VAL117  THR118  PHE193  TYR199  SER203  SER207 
 PHE208  TRP286  PHE289  PHE290  ASN293  TYR308  ASN312  TYR316 

> <Gold.Protein.RotatedAtoms>
  -35.2757    4.7524    2.1284 H   0  0  0  0  0  0  0  0  0  0  0  0  # atno 1294 bound_to 1290
  -28.1625   14.9335    3.1013 H   0  0  0  0  0  0  0  0  0  0  0  0  # atno 1412 bound_to 1408
  -26.9390    7.2594    2.6923 H   0  0  0  0  0  0  0  0  0  0  0  0  # atno 2723 bound_to 2714
  -24.6660    9.8114    3.7182 H   0  0  0  0  0  0  0  0  0  0  0  0  # atno 2773 bound_to 2768
  -23.4359   13.1117    2.9437 H   0  0  0  0  0  0  0  0  0  0  0  0  # atno 2830 bound_to 2825
  -29.3242    6.6674   10.8771 H   0  0  0  0  0  0  0  0  0  0  0  0  # atno 4033 bound_to 4024
  -36.2658    8.6523    8.4185 H   0  0  0  0  0  0  0  0  0  0  0  0  # atno 4175 bound_to 4166
  -36.7470    9.3447    7.0583 LP  0  0  0  0  0  0  0  0  0  0  0  0  # atno 4597 bound_to 4166
  -37.7659    8.4032    7.9197 LP  0  0  0  0  0  0  0  0  0  0  0  0  # atno 4598 bound_to 4166
  -33.9170    3.9440    2.3764 LP  0  0  0  0  0  0  0  0  0  0  0  0  # atno 4603 bound_to 1290
  -34.7606    3.7506    0.9916 LP  0  0  0  0  0  0  0  0  0  0  0  0  # atno 4604 bound_to 1290
  -28.4749    5.3134   10.7885 LP  0  0  0  0  0  0  0  0  0  0  0  0  # atno 4607 bound_to 4024
  -27.8885    6.6141   11.5830 LP  0  0  0  0  0  0  0  0  0  0  0  0  # atno 4608 bound_to 4024
  -26.5962   15.1236    2.8330 LP  0  0  0  0  0  0  0  0  0  0  0  0  # atno 4611 bound_to 1408
  -27.5715   14.5112    1.6752 LP  0  0  0  0  0  0  0  0  0  0  0  0  # atno 4612 bound_to 1408
  -24.1384   14.1807    1.9824 LP  0  0  0  0  0  0  0  0  0  0  0  0  # atno 4613 bound_to 2825
  -25.0186   13.0232    2.7255 LP  0  0  0  0  0  0  0  0  0  0  0  0  # atno 4614 bound_to 2825

> <Gold.Score>
     Score         DG    S(hbond)    S(metal)    S(lipo)     H(rot)  DE(clash)    DE(int)     intcor
     22.91     -24.23       2.90        0.00     138.83       2.80       0.12       1.21       0.47

> <Gold.Chemscore.Fitness>
22.9072

> <Gold.Chemscore.DG>
-24.2342

> <Gold.Chemscore.ZeroCoef>
-5.4800

> <Gold.Chemscore.Hbond>
2.9000

> <Gold.Chemscore.Metal>
0.0000

> <Gold.Chemscore.Lipo>
138.8265

> <Gold.Chemscore.Internal_Hbond>
0.0000

> <Gold.Chemscore.DEClash>
0.1187

> <Gold.Chemscore.DEInternal>
1.2083

> <Gold.Chemscore.Rot>
2.8026

> <Gold.Chemscore.Internal.Correction>
0.4659

> <Gold.Chemscore.Hbonds>
donor molecule, donor type, donor heavy atom, donor atom, acceptor molecule, acceptor atom, score
      L1  H    15    33       P1  4098  0.97
      L1  H    17    36       P1  4098  0.97
      P1  H  2768  2773       L1     1  0.97

> <Gold.Chemscore.Hbond.Weighted>
-9.6861

> <Gold.Chemscore.Metal.Weighted>
-0.0000

> <Gold.Chemscore.Lipo.Weighted>
-16.2427

> <Gold.Chemscore.Internal_Hbond.Weighted>
0.0000

> <Gold.Chemscore.DEClash.Weighted>
0.1187

> <Gold.Chemscore.DEInternal.Weighted>
1.2083

> <Gold.Chemscore.Rot.Weighted>
7.1747

> <Gold.Chemscore.Internal.Correction.Weighted>
0.4659

