#       Name:                *****
#       Creating user name   student
#       Creation time:       Mon Mar 18 16:43:46 2019


#       File generated by GOLD software.
#

@<TRIPOS>MOLECULE
*****|CHEMBL392888|mol2|1|dock2
    44    46     1
SMALL
GASTEIGER


@<TRIPOS>ATOM
      1 C          -37.9079  17.1276   3.7390 C.3            1 <1>                0.0018
      2 N          -37.0824  16.7996   4.8859 N.pl3          1 <1>               -0.3198
      3 C          -37.1743  17.6734   6.0502 C.3            1 <1>                0.0377
      4 C          -37.1115  19.1310   5.6464 C.ar           1 <1>               -0.0302
      5 C          -35.9666  19.6399   5.0154 C.ar           1 <1>               -0.0571
      6 C          -35.9061  20.9772   4.6185 C.ar           1 <1>               -0.0615
      7 C          -36.9847  21.8252   4.8594 C.ar           1 <1>               -0.0617
      8 C          -38.1202  21.3394   5.5047 C.ar           1 <1>               -0.0615
      9 C          -38.1835  20.0006   5.8986 C.ar           1 <1>               -0.0571
     10 C          -36.1549  15.7848   4.8246 C.2            1 <1>                0.0845
     11 N          -35.3679  15.4018   5.7714 N.2            1 <1>               -0.2404
     12 C          -34.5010  14.3138   5.5651 C.ar           1 <1>                0.0656
     13 C          -33.5342  14.2601   4.5429 C.ar           1 <1>               -0.0360
     14 C          -32.6957  13.1490   4.3888 C.ar           1 <1>               -0.0562
     15 C          -32.8090  12.1023   5.2873 C.ar           1 <1>               -0.0415
     16 C          -32.0160  10.8398   5.3108 C.3            1 <1>               -0.0247
     17 C          -32.5256  10.1128   6.5670 C.3            1 <1>               -0.0187
     18 C          -33.6744  10.9307   7.1827 C.3            1 <1>                0.0808
     19 O          -34.8797  10.1815   7.1231 O.3            1 <1>               -0.3872
     20 C          -33.7415  12.1497   6.3208 C.ar           1 <1>               -0.0140
     21 C          -34.5854  13.2442   6.4658 C.ar           1 <1>               -0.0304
     22 H          -38.8305  17.6368   4.0327 H              1 <1>                0.0428
     23 H          -38.1955  16.2253   3.1890 H              1 <1>                0.0428
     24 H          -37.3570  17.7850   3.0583 H              1 <1>                0.0428
     25 H          -36.3602  17.4626   6.7563 H              1 <1>                0.0513
     26 H          -38.0936  17.4815   6.6185 H              1 <1>                0.0513
     27 H          -35.1123  18.9899   4.8338 H              1 <1>                0.0621
     28 H          -35.0152  21.3546   4.1239 H              1 <1>                0.0618
     29 H          -36.9380  22.8652   4.5470 H              1 <1>                0.0618
     30 H          -38.9576  22.0042   5.7008 H              1 <1>                0.0618
     31 H          -39.0774  19.6397   6.4003 H              1 <1>                0.0621
     32 H          -36.1492  15.3018   3.8313 H              1 <1>                0.0999
     33 H          -33.4181  15.0920   3.8543 H              1 <1>                0.0639
     34 H          -31.9697  13.1188   3.5831 H              1 <1>                0.0621
     35 H          -30.9443  11.0501   5.3902 H              1 <1>                0.0314
     36 H          -32.2059  10.2471   4.4116 H              1 <1>                0.0314
     37 H          -31.7035  10.0280   7.2887 H              1 <1>                0.0297
     38 H          -32.8303   9.0888   6.3211 H              1 <1>                0.0297
     39 H          -33.4576  11.1853   8.2251 H              1 <1>                0.0644
     40 H          -34.8571   9.6594   6.3033 H              1 <1>                0.2102
     41 H          -35.3082  13.2792   7.2762 H              1 <1>                0.0642
     42 ****       -35.3739  15.8776   6.6510 LP             1 <1>                0.0000
     43 ****       -35.6660  10.7992   7.1134 LP             1 <1>                0.0000
     44 ****       -34.9436   9.5731   7.9141 LP             1 <1>                0.0000
@<TRIPOS>BOND
    1    1    2 1     
    2    2    3 1     
    3    3    4 1     
    4    4    5 ar    
    5    5    6 ar    
    6    6    7 ar    
    7    7    8 ar    
    8    8    9 ar    
    9    4    9 ar    
   10    2   10 1     
   11   10   11 2     
   12   11   12 1     
   13   12   13 ar    
   14   13   14 ar    
   15   14   15 ar    
   16   15   16 1     
   17   16   17 1     
   18   17   18 1     
   19   18   19 1     
   20   18   20 1     
   21   15   20 ar    
   22   20   21 ar    
   23   12   21 ar    
   24    1   22 1     
   25    1   23 1     
   26    1   24 1     
   27    3   25 1     
   28    3   26 1     
   29    5   27 1     
   30    6   28 1     
   31    7   29 1     
   32    8   30 1     
   33    9   31 1     
   34   10   32 1     
   35   13   33 1     
   36   14   34 1     
   37   16   35 1     
   38   16   36 1     
   39   17   37 1     
   40   17   38 1     
   41   18   39 1     
   42   19   40 1     
   43   21   41 1     
   44   11   42 1     
   45   19   43 1     
   46   19   44 1     
@<TRIPOS>SUBSTRUCTURE
      1 ****           1
@<TRIPOS>SET
LONE_PAIRS      STATIC     ATOMS    <user>   **** ""
3 42 43 44
DONOR_HYDROGENS      STATIC     ATOMS    <user>   **** ""
1 40
ATOM$BLUE        STATIC     ATOMS    COLORGROUP SYSTEM
3 42 43 44
ATOM$RED        STATIC     ATOMS    COLORGROUP SYSTEM
1 40
@<TRIPOS>COMMENT
> <Gold.Version>
5.5

> <Gold.Id.Protein>
ID|ID_protein|mol2

> <Gold.Protein.ActiveResidues>
 LEU18   LEU52   SER53   ALA55   VAL56   ALA57   MET59   PRO60   PHE61   VAL62  
 SER63   VAL64   LEU67   TRP72   PHE78   CYS79   VAL81   PHE82   ILE83   ALA84  
 MET85   ASP86   VAL87   MET88   CYS89   CYS90   SER93   TRP131  THR138  LEU139 
 LEU142  PHE161  GLU222  GLU225  LEU229  LYS248  THR251  THR252  GLY254  ILE255 

> <Gold.Score>
     Score     S(PLP)   S(hbond)     S(cho)   S(metal)  DE(clash)   DE(tors)     intcor
     64.79     -66.03       0.00       0.00       0.00       0.00       0.64       0.04

> <Gold.PLP.Fitness>
64.7892

> <Gold.PLP.PLP>
-66.0326

> <Gold.PLP.part.hbond>
0.0000

> <Gold.PLP.part.metal>
0.0000

> <Gold.PLP.part.buried>
-6.5827

> <Gold.PLP.part.nonpolar>
-59.9443

> <Gold.PLP.part.repulsive>
0.0493

> <Gold.PLP.ligand.clash>
0.0000

> <Gold.PLP.ligand.torsion>
0.6397

> <Gold.PLP.Chemscore.Hbond>
0.0000

> <Gold.PLP.Chemscore.CHOScore>
0.0000

> <Gold.PLP.Chemscore.Metal>
0.0000

> <Gold.PLP.Chemscore.Internal.Correction>
0.0360

