#       Name:                plp ligand
#       Creating user name   student
#       Creation time:       Mon Mar 18 16:43:39 2019


#       File generated by GOLD software.
#

@<TRIPOS>MOLECULE
plp ligand
    44    46     1
SMALL
GASTEIGER


@<TRIPOS>ATOM
      1 C           -1.9773   2.3587  -1.5549 NONPOLAR       1 <1>                0.0018
      2 N           -2.5430   1.1443  -0.9982 NONPOLAR       1 <1>               -0.3198
      3 C           -3.9270   1.1975  -0.5409 NONPOLAR       1 <1>                0.0377
      4 C           -4.8710   0.6490  -1.5895 NONPOLAR       1 <1>               -0.0302
      5 C           -5.2330  -0.7063  -1.5737 NONPOLAR       1 <1>               -0.0571
      6 C           -6.1203  -1.2185  -2.5224 NONPOLAR       1 <1>               -0.0615
      7 C           -6.6463  -0.3845  -3.5063 NONPOLAR       1 <1>               -0.0617
      8 C           -6.2792   0.9592  -3.5479 NONPOLAR       1 <1>               -0.0615
      9 C           -5.3947   1.4736  -2.5968 NONPOLAR       1 <1>               -0.0571
     10 C           -1.7629   0.0301  -0.7891 NONPOLAR       1 <1>                0.0845
     11 N           -0.5037  -0.0873  -1.0404 ACCEPTOR       1 <1>               -0.2404
     12 C            0.1646  -1.2847  -0.7281 NONPOLAR       1 <1>                0.0656
     13 C           -0.4174  -2.5623  -0.8348 NONPOLAR       1 <1>               -0.0360
     14 C            0.3004  -3.7207  -0.5119 NONPOLAR       1 <1>               -0.0562
     15 C            1.6192  -3.5944  -0.1115 NONPOLAR       1 <1>               -0.0415
     16 C            2.5592  -4.6885   0.2664 NONPOLAR       1 <1>               -0.0247
     17 C            3.8843  -3.9543   0.5336 NONPOLAR       1 <1>               -0.0187
     18 C            3.6488  -2.4396   0.4000 NONPOLAR       1 <1>                0.0808
     19 O            3.8650  -1.8100   1.6548 DONACC         1 <1>               -0.3872
     20 C            2.2197  -2.3406  -0.0258 NONPOLAR       1 <1>               -0.0140
     21 C            1.5044  -1.1887  -0.3302 NONPOLAR       1 <1>               -0.0304
     22 H           -2.7398   2.9839  -2.0289 0ÿ˜o_          1 <1>                0.0428
     23 H           -1.2247   2.1300  -2.3169 0ÿ˜o_          1 <1>                0.0428
     24 H           -1.4991   2.9448  -0.7633 0ÿ˜o_          1 <1>                0.0428
     25 H           -4.2161   2.2302  -0.3048 0ÿ˜o_          1 <1>                0.0513
     26 H           -4.0547   0.6494   0.4015 0ÿ˜o_          1 <1>                0.0513
     27 H           -4.8178  -1.3705  -0.8176 0ÿ˜o_          1 <1>                0.0621
     28 H           -6.3968  -2.2688  -2.4923 0ÿ˜o_          1 <1>                0.0618
     29 H           -7.3396  -0.7833  -4.2424 0ÿ˜o_          1 <1>                0.0618
     30 H           -6.6829   1.6070  -4.3219 0ÿ˜o_          1 <1>                0.0618
     31 H           -5.1203   2.5240  -2.6449 0ÿ˜o_          1 <1>                0.0621
     32 H           -2.3512  -0.8007  -0.3604 0ÿ˜o_          1 <1>                0.0999
     33 H           -1.4417  -2.6707  -1.1793 0ÿ˜o_          1 <1>                0.0639
     34 H           -0.1721  -4.6949  -0.5828 0ÿ˜o_          1 <1>                0.0621
     35 H            2.6711  -5.4100  -0.5497 0ÿ˜o_          1 <1>                0.0314
     36 H            2.2100  -5.2050   1.1648 0ÿ˜o_          1 <1>                0.0314
     37 H            4.6279  -4.2797  -0.2047 0ÿ˜o_          1 <1>                0.0297
     38 H            4.2830  -4.2274   1.5176 0ÿ˜o_          1 <1>                0.0297
     39 H            4.3225  -2.0037  -0.3446 0ÿ˜o_          1 <1>                0.0644
     40 H            3.0050  -1.7558   2.1048 0ÿ˜o_          1 <1>                0.2102
     41 H            1.9780  -0.2129  -0.2666 0ÿ˜o_          1 <1>                0.0642
     42 ****        -0.0032   0.6718  -1.4566 0ÿ˜o_          1 <1>                0.0000
     43 ****         4.2371  -0.8921   1.5171 0ÿ˜o_          1 <1>                0.0000
     44 ****         4.5040  -2.3500   2.2026 0ÿ˜o_          1 <1>                0.0000
@<TRIPOS>BOND
    1    1    2 1     
    2    2    3 1     
    3    3    4 1     
    4    4    5 ar    
    5    5    6 ar    
    6    6    7 ar    
    7    7    8 ar    
    8    8    9 ar    
    9    4    9 ar    
   10    2   10 1     
   11   10   11 2     
   12   11   12 1     
   13   12   13 ar    
   14   13   14 ar    
   15   14   15 ar    
   16   15   16 1     
   17   16   17 1     
   18   17   18 1     
   19   18   19 1     
   20   18   20 1     
   21   15   20 ar    
   22   20   21 ar    
   23   12   21 ar    
   24    1   22 1     
   25    1   23 1     
   26    1   24 1     
   27    3   25 1     
   28    3   26 1     
   29    5   27 1     
   30    6   28 1     
   31    7   29 1     
   32    8   30 1     
   33    9   31 1     
   34   10   32 1     
   35   13   33 1     
   36   14   34 1     
   37   16   35 1     
   38   16   36 1     
   39   17   37 1     
   40   17   38 1     
   41   18   39 1     
   42   19   40 1     
   43   21   41 1     
   44   11   42 1     
   45   19   43 1     
   46   19   44 1     
@<TRIPOS>SUBSTRUCTURE
      1 ****           1
@<TRIPOS>SET
LONE_PAIRS      STATIC     ATOMS    <user>   **** ""
3 42 43 44
DONOR_HYDROGENS      STATIC     ATOMS    <user>   **** ""
1 40
ATOM$BLUE        STATIC     ATOMS    COLORGROUP SYSTEM
3 42 43 44
ATOM$RED        STATIC     ATOMS    COLORGROUP SYSTEM
1 40
