#       Name:                C:\Users\porto\OneDrive\projekt\beta2\ligandy\L_4lde.pdb L_4lde.pdb 1
#       Creating user name   student
#       Creation time:       Mon Apr 01 15:21:42 2019


#       File generated by GOLD software.
#

@<TRIPOS>MOLECULE
C:\Users\porto\OneDrive\projekt\beta2\ligandy\L_4lde.pdb L_4lde.pdb 1|4lde|mol2|1|dock2
    62    64     1
SMALL
GASTEIGER


@<TRIPOS>ATOM
      1 CAA        -36.2220   5.6607  10.7944 C.3            1 <1>               -0.0395
      2 CAB        -33.7255   6.1400   6.0186 C.3            1 <1>               -0.0467
      3 CAC        -32.6630   5.8646   8.2595 C.3            1 <1>               -0.0467
      4 CAG        -35.3330   2.1662   9.7050 C.ar           1 <1>               -0.0615
      5 CAH        -34.8538   2.3684   8.4157 C.ar           1 <1>               -0.0615
      6 CAI        -35.7726   3.2395  10.4682 C.ar           1 <1>               -0.0586
      7 CAJ        -34.8067   3.6482   7.8943 C.ar           1 <1>               -0.0583
      8 CAK        -29.9409  12.3947   6.3984 C.ar           1 <1>               -0.0178
      9 CAL        -31.0160  11.7119   6.9610 C.ar           1 <1>               -0.0490
     10 CAM        -28.1245   8.0745   7.9311 C.3            1 <1>                0.1656
     11 CAN        -32.4793   8.5353   7.0282 C.3            1 <1>                0.0267
     12 CAO        -35.1940   6.1119   8.0430 C.3            1 <1>               -0.0096
     13 CAS        -27.0451   8.7468   7.1040 C.2            1 <1>                0.2550
     14 CAT        -35.7334   4.5213   9.9402 C.ar           1 <1>               -0.0472
     15 CAU        -28.7271  11.7474   6.2005 C.ar           1 <1>                0.1416
     16 CAV        -35.2630   4.7267   8.6478 C.ar           1 <1>               -0.0427
     17 CAW        -30.8848  10.3770   7.3278 C.ar           1 <1>                0.0258
     18 CAX        -28.5888  10.4249   6.5709 C.ar           1 <1>                0.1180
     19 CAY        -29.6560   9.7420   7.1310 C.ar           1 <1>                0.1515
     20 CAZ        -32.0473   9.6748   7.9352 C.3            1 <1>                0.0960
     21 NAP        -33.6810   7.9385   7.5711 N.3            1 <1>               -0.3080
     22 NAQ        -27.4098   9.7922   6.3682 N.am           1 <1>               -0.2769
     23 OAD        -25.8954   8.3348   7.1235 O.2            1 <1>               -0.2717
     24 OAE        -27.6685  12.4076   5.6500 O.3            1 <1>               -0.5048
     25 OAF        -33.1770  10.5473   8.1009 O.3            1 <1>               -0.3858
     26 OAR        -29.4285   8.4326   7.4600 O.3            1 <1>               -0.4804
     27 CBA        -33.8197   6.4993   7.4962 C.3            1 <1>                0.0176
     28 HAA1       -36.1272   6.5954  10.2427 H              1 <1>                0.0278
     29 HAA2       -37.2675   5.4974  11.0558 H              1 <1>                0.0278
     30 HAA3       -35.6250   5.7149  11.7047 H              1 <1>                0.0278
     31 HAB1       -34.5553   6.5967   5.4791 H              1 <1>                0.0247
     32 HAB2       -32.7829   6.5084   5.6135 H              1 <1>                0.0247
     33 HAB3       -33.7710   5.0568   5.9037 H              1 <1>                0.0247
     34 HAC1       -32.7369   6.1257   9.3151 H              1 <1>                0.0247
     35 HAC2       -32.7060   4.7811   8.1495 H              1 <1>                0.0247
     36 HAC3       -31.7178   6.2328   7.8603 H              1 <1>                0.0247
     37 HAG        -35.3654   1.1692  10.1193 H              1 <1>                0.0618
     38 HAH        -34.5195   1.5279   7.8255 H              1 <1>                0.0618
     39 HAI        -36.1434   3.0746  11.4691 H              1 <1>                0.0620
     40 HAJ        -34.4159   3.8120   6.9011 H              1 <1>                0.0620
     41 HAK        -30.0482  13.4313   6.1140 H              1 <1>                0.0655
     42 HAL        -31.9572  12.2191   7.1141 H              1 <1>                0.0623
     43 HAM1       -28.0209   8.3732   8.9741 H              1 <1>                0.0795
     44 HAM2       -28.0035   6.9925   7.8762 H              1 <1>                0.0795
     45 HAN1       -31.6891   7.7854   6.9853 H              1 <1>                0.0453
     46 HAN2       -32.6852   8.9237   6.0302 H              1 <1>                0.0453
     47 HAO1       -35.5066   6.8458   8.7858 H              1 <1>                0.0331
     48 HAO2       -35.9351   6.1967   7.2487 H              1 <1>                0.0331
     49 HAZ        -31.7576   9.2721   8.9060 H              1 <1>                0.0657
     50 HNAP       -33.7512   8.1578   8.5546 H              1 <1>                0.1225
     51 HNAQ       -26.8013  10.1319   5.6367 H              1 <1>                0.1551
     52 HOAE       -26.8812  12.2428   6.1735 H              1 <1>                0.2922
     53 HOAF       -33.6749  10.5866   7.2803 H              1 <1>                0.2103
     54 ****       -34.3923   8.3284   6.9863 LP             1 <1>                0.0000
     55 ****       -25.6566   7.5455   7.6892 LP             1 <1>                0.0000
     56 ****       -25.1929   8.7868   6.5736 LP             1 <1>                0.0000
     57 ****       -27.8592  13.3892   5.6348 LP             1 <1>                0.0000
     58 ****       -27.5219  12.0821   4.7160 LP             1 <1>                0.0000
     59 ****       -32.8576  11.4640   8.3411 LP             1 <1>                0.0000
     60 ****       -33.7643  10.1972   8.8306 LP             1 <1>                0.0000
     61 ****       -30.0812   8.1885   8.1772 LP             1 <1>                0.0000
     62 ****       -29.6103   7.8849   6.6433 LP             1 <1>                0.0000
@<TRIPOS>BOND
    1    1   14 1     
    2    1   28 1     
    3    1   29 1     
    4    1   30 1     
    5    2   27 1     
    6    2   31 1     
    7    2   32 1     
    8    2   33 1     
    9    3   27 1     
   10    3   34 1     
   11    3   35 1     
   12    3   36 1     
   13    4    5 ar    
   14    4    6 ar    
   15    4   37 1     
   16    5    7 ar    
   17    5   38 1     
   18    6   14 ar    
   19    6   39 1     
   20    7   16 ar    
   21    7   40 1     
   22    8    9 ar    
   23    8   15 ar    
   24    8   41 1     
   25    9   17 ar    
   26    9   42 1     
   27   10   13 1     
   28   10   26 1     
   29   10   43 1     
   30   10   44 1     
   31   11   20 1     
   32   11   21 1     
   33   11   45 1     
   34   11   46 1     
   35   12   16 1     
   36   12   27 1     
   37   12   47 1     
   38   12   48 1     
   39   13   22 am    
   40   13   23 2     
   41   14   16 ar    
   42   15   18 ar    
   43   15   24 1     
   44   17   19 ar    
   45   17   20 1     
   46   18   19 ar    
   47   18   22 1     
   48   19   26 1     
   49   20   25 1     
   50   20   49 1     
   51   21   27 1     
   52   21   50 1     
   53   22   51 1     
   54   24   52 1     
   55   25   53 1     
   56   21   54 1     
   57   23   55 1     
   58   23   56 1     
   59   24   57 1     
   60   24   58 1     
   61   25   59 1     
   62   25   60 1     
   63   26   61 1     
   64   26   62 1     
@<TRIPOS>SUBSTRUCTURE
      1 ****           1
@<TRIPOS>SET
LONE_PAIRS      STATIC     ATOMS    <user>   **** ""
9 54 55 56 57 58 59 60 61 62
DONOR_HYDROGENS      STATIC     ATOMS    <user>   **** ""
4 50 51 52 53
ATOM$BLUE        STATIC     ATOMS    COLORGROUP SYSTEM
9 54 55 56 57 58 59 60 61 62
ATOM$RED        STATIC     ATOMS    COLORGROUP SYSTEM
4 50 51 52 53
@<TRIPOS>COMMENT
> <Gold.Version>
5.5

> <Gold.Id.Protein>
unknown|dok_beta2|pdb

> <Gold.Protein.RotatedTorsions>
[ 4175 4166 4165 4163 ] final  -30.03 input -179.98 | X-H torsion
[ 1294 1290 1288 1285 ] final   31.59 input -179.99 | X-H torsion
[ 4033 4024 4023 4021 ] final  -86.73 input  179.98 | X-H torsion
[ 1412 1408 1406 1403 ] final  -95.30 input -179.99 | X-H torsion
[ 2830 2825 2824 2821 ] final   15.72 input -179.98 | X-H torsion
[ 2723 2714 2713 2711 ] final -166.29 input -179.98 | X-H torsion
[ 2773 2768 2767 2764 ] final  -83.26 input  180.00 | X-H torsion

> <Gold.Protein.ActiveResidues>
 TRP109  THR110  ASP113  VAL114  VAL117  THR118  PHE193  TYR199  SER203  SER207 
 PHE208  TRP286  PHE289  PHE290  ASN293  TYR308  ASN312  TYR316 

> <Gold.Protein.RotatedAtoms>
  -35.4315    4.5502    1.5735 H   0  0  0  0  0  0  0  0  0  0  0  0  # atno 1294 bound_to 1290
  -26.5898   15.0859    2.6887 H   0  0  0  0  0  0  0  0  0  0  0  0  # atno 1412 bound_to 1408
  -26.7311    7.5971    2.9058 H   0  0  0  0  0  0  0  0  0  0  0  0  # atno 2723 bound_to 2714
  -24.3873   10.3318    3.9061 H   0  0  0  0  0  0  0  0  0  0  0  0  # atno 2773 bound_to 2768
  -23.3506   13.7634    2.4553 H   0  0  0  0  0  0  0  0  0  0  0  0  # atno 2830 bound_to 2825
  -28.0346    5.4770   11.0930 H   0  0  0  0  0  0  0  0  0  0  0  0  # atno 4033 bound_to 4024
  -37.1780    8.2654    8.4907 H   0  0  0  0  0  0  0  0  0  0  0  0  # atno 4175 bound_to 4166
  -36.0373    9.1365    7.7829 LP  0  0  0  0  0  0  0  0  0  0  0  0  # atno 4597 bound_to 4166
  -37.5247    9.0148    7.1199 LP  0  0  0  0  0  0  0  0  0  0  0  0  # atno 4598 bound_to 4166
  -34.2875    4.3649    2.6773 LP  0  0  0  0  0  0  0  0  0  0  0  0  # atno 4603 bound_to 1290
  -34.2277    3.5404    1.2690 LP  0  0  0  0  0  0  0  0  0  0  0  0  # atno 4604 bound_to 1290
  -28.3042    6.9978   11.5134 LP  0  0  0  0  0  0  0  0  0  0  0  0  # atno 4607 bound_to 4024
  -29.4024    6.1696   10.6331 LP  0  0  0  0  0  0  0  0  0  0  0  0  # atno 4608 bound_to 4024
  -27.7131   14.4975    1.7124 LP  0  0  0  0  0  0  0  0  0  0  0  0  # atno 4611 bound_to 1408
  -28.0935   14.9785    3.2258 LP  0  0  0  0  0  0  0  0  0  0  0  0  # atno 4612 bound_to 1408
  -24.9113   13.8424    2.1116 LP  0  0  0  0  0  0  0  0  0  0  0  0  # atno 4613 bound_to 2825
  -24.3346   12.6820    3.1054 LP  0  0  0  0  0  0  0  0  0  0  0  0  # atno 4614 bound_to 2825

> <Gold.Score>
     Score     S(PLP)   S(hbond)     S(cho)   S(metal)  DE(clash)   DE(tors)     intcor
     80.81     -74.77       2.98       0.00       0.00       1.57       0.91       0.49

> <Gold.PLP.Fitness>
80.8115

> <Gold.PLP.PLP>
-74.7740

> <Gold.PLP.part.hbond>
-4.7482

> <Gold.PLP.part.metal>
0.0000

> <Gold.PLP.part.buried>
-10.1749

> <Gold.PLP.part.nonpolar>
-61.6660

> <Gold.PLP.part.repulsive>
0.0663

> <Gold.PLP.ligand.clash>
1.5679

> <Gold.PLP.ligand.torsion>
0.9081

> <Gold.PLP.Chemscore.Hbond>
2.9760

> <Gold.PLP.Chemscore.CHOScore>
0.0000

> <Gold.PLP.Chemscore.Metal>
0.0000

> <Gold.Chemscore.Hbonds>
donor molecule, donor type, donor heavy atom, donor atom, acceptor molecule, acceptor atom, score
      L1  H    21    50       P1  4098  1.00
      L1  H    25    53       P1  1334  1.00
      P1  H  4097  4104       L1    25  0.98

> <Gold.PLP.Chemscore.Internal.Correction>
0.4936

