#       Name:                *****
#       Creating user name   student
#       Creation time:       Mon Mar 18 16:44:34 2019


#       File generated by GOLD software.
#

@<TRIPOS>MOLECULE
*****|CHEMBL2158026|mol2|1|dock2
    69    71     1
SMALL
GASTEIGER


@<TRIPOS>ATOM
      1 C          -33.3749  21.8153   7.7129 C.3            1 <1>               -0.0307
      2 C          -33.6100  21.4672   6.2593 C.3            1 <1>                0.0868
      3 O          -34.3970  20.2793   6.1535 O.3            1 <1>               -0.4915
      4 C          -35.7274  20.4866   5.8543 C.ar           1 <1>                0.1326
      5 C          -36.2153  21.7324   5.4209 C.ar           1 <1>               -0.0192
      6 C          -37.5848  21.9723   5.2892 C.ar           1 <1>               -0.0583
      7 C          -38.4917  20.9623   5.5742 C.ar           1 <1>               -0.0608
      8 C          -38.0195  19.6944   5.9024 C.ar           1 <1>               -0.0461
      9 C          -36.6373  19.4275   5.9996 C.ar           1 <1>                0.0782
     10 C          -36.2828  17.9902   6.1852 C.2            1 <1>                0.2476
     11 O          -35.1051  17.6574   6.0736 O.2            1 <1>               -0.2701
     12 N          -37.2787  17.0833   6.4760 N.am           1 <1>               -0.3110
     13 C          -36.9941  15.6717   6.6891 C.3            1 <1>                0.0148
     14 C          -36.6173  14.9196   5.3974 C.3            1 <1>               -0.0231
     15 C          -35.3574  14.0569   5.5254 C.3            1 <1>               -0.0359
     16 C          -35.5824  12.7731   6.3448 C.3            1 <1>               -0.0007
     17 N          -36.7084  11.9391   5.8949 N.3            1 <1>               -0.2991
     18 C          -36.3884  10.9717   4.8227 C.3            1 <1>                0.0331
     19 C          -37.4700   9.9228   4.5827 C.3            1 <1>                0.1023
     20 O          -37.2807   8.6521   5.1987 O.3            1 <1>               -0.4896
     21 C          -37.6107   7.6140   4.3437 C.ar           1 <1>                0.1339
     22 C          -37.4687   7.7334   2.9380 C.ar           1 <1>               -0.0188
     23 C          -37.8810   6.7263   2.0683 C.ar           1 <1>               -0.0582
     24 C          -38.4073   5.5561   2.5875 C.ar           1 <1>               -0.0605
     25 C          -38.5019   5.3979   3.9741 C.ar           1 <1>               -0.0448
     26 C          -38.1052   6.4123   4.8765 C.ar           1 <1>                0.0493
     27 S          -38.3245   5.9535   6.6033 S.3            1 <1>               -0.1250
     28 C          -36.7157   6.2145   7.3896 C.3            1 <1>               -0.0133
     29 C          -37.9287  12.7241   5.6990 C.3            1 <1>               -0.0007
     30 C          -37.7758  14.0285   4.9049 C.3            1 <1>               -0.0359
     31 H          -32.6185  22.6029   7.7997 H              1 <1>                0.0262
     32 H          -33.0544  20.9412   8.2867 H              1 <1>                0.0262
     33 H          -34.3007  22.1867   8.1676 H              1 <1>                0.0262
     34 H          -32.6466  21.3084   5.7586 H              1 <1>                0.0694
     35 H          -34.1171  22.3336   5.8019 H              1 <1>                0.0694
     36 H          -35.5431  22.5478   5.1696 H              1 <1>                0.0654
     37 H          -37.9407  22.9506   4.9762 H              1 <1>                0.0619
     38 H          -39.5605  21.1456   5.5112 H              1 <1>                0.0618
     39 H          -38.7420  18.8975   6.0797 H              1 <1>                0.0626
     40 H          -38.2006  17.4491   6.6899 H              1 <1>                0.1490
     41 H          -37.9122  15.2387   7.1019 H              1 <1>                0.0465
     42 H          -36.2130  15.5750   7.4498 H              1 <1>                0.0465
     43 H          -36.4251  15.6760   4.6249 H              1 <1>                0.0317
     44 H          -34.5142  14.6191   5.9310 H              1 <1>                0.0281
     45 H          -35.0231  13.8295   4.5126 H              1 <1>                0.0281
     46 H          -35.7728  13.0425   7.3897 H              1 <1>                0.0427
     47 H          -34.6573  12.1836   6.3714 H              1 <1>                0.0427
     48 H          -35.4144  10.4990   4.9988 H              1 <1>                0.0460
     49 H          -36.2484  11.5323   3.8879 H              1 <1>                0.0460
     50 H          -37.4638   9.7463   3.5068 H              1 <1>                0.0709
     51 H          -38.4206  10.3213   4.9415 H              1 <1>                0.0709
     52 H          -37.0386   8.6135   2.4667 H              1 <1>                0.0654
     53 H          -37.7874   6.8652   0.9967 H              1 <1>                0.0619
     54 H          -38.7289   4.7607   1.9215 H              1 <1>                0.0618
     55 H          -38.8970   4.4584   4.3524 H              1 <1>                0.0630
     56 H          -36.7895   5.8855   8.4317 H              1 <1>                0.0344
     57 H          -36.4510   7.2756   7.3958 H              1 <1>                0.0344
     58 H          -35.9321   5.6171   6.9181 H              1 <1>                0.0344
     59 H          -38.3155  12.9791   6.6938 H              1 <1>                0.0427
     60 H          -38.7113  12.1069   5.2416 H              1 <1>                0.0427
     61 H          -38.7186  14.5871   4.9411 H              1 <1>                0.0281
     62 H          -37.6220  13.7999   3.8460 H              1 <1>                0.0281
     63 ****       -34.3473  19.7953   7.0271 LP             1 <1>                0.0000
     64 ****       -34.0023  19.7087   5.4333 LP             1 <1>                0.0000
     65 ****       -34.4093  18.3440   5.8629 LP             1 <1>                0.0000
     66 ****       -34.8426  16.7000   6.1935 LP             1 <1>                0.0000
     67 ****       -36.9117  11.3220   6.6551 LP             1 <1>                0.0000
     68 ****       -37.8586   8.5975   6.0129 LP             1 <1>                0.0000
     69 ****       -36.3210   8.5606   5.4643 LP             1 <1>                0.0000
@<TRIPOS>BOND
    1    1    2 1     
    2    2    3 1     
    3    3    4 1     
    4    4    5 ar    
    5    5    6 ar    
    6    6    7 ar    
    7    7    8 ar    
    8    8    9 ar    
    9    4    9 ar    
   10    9   10 1     
   11   10   11 2     
   12   10   12 am    
   13   12   13 1     
   14   13   14 1     
   15   14   15 1     
   16   15   16 1     
   17   16   17 1     
   18   17   18 1     
   19   18   19 1     
   20   19   20 1     
   21   20   21 1     
   22   21   22 ar    
   23   22   23 ar    
   24   23   24 ar    
   25   24   25 ar    
   26   25   26 ar    
   27   21   26 ar    
   28   26   27 1     
   29   27   28 1     
   30   17   29 1     
   31   29   30 1     
   32   14   30 1     
   33    1   31 1     
   34    1   32 1     
   35    1   33 1     
   36    2   34 1     
   37    2   35 1     
   38    5   36 1     
   39    6   37 1     
   40    7   38 1     
   41    8   39 1     
   42   12   40 1     
   43   13   41 1     
   44   13   42 1     
   45   14   43 1     
   46   15   44 1     
   47   15   45 1     
   48   16   46 1     
   49   16   47 1     
   50   18   48 1     
   51   18   49 1     
   52   19   50 1     
   53   19   51 1     
   54   22   52 1     
   55   23   53 1     
   56   24   54 1     
   57   25   55 1     
   58   28   56 1     
   59   28   57 1     
   60   28   58 1     
   61   29   59 1     
   62   29   60 1     
   63   30   61 1     
   64   30   62 1     
   65    3   63 1     
   66    3   64 1     
   67   11   65 1     
   68   11   66 1     
   69   17   67 1     
   70   20   68 1     
   71   20   69 1     
@<TRIPOS>SUBSTRUCTURE
      1 ****           1
@<TRIPOS>SET
LONE_PAIRS      STATIC     ATOMS    <user>   **** ""
7 63 64 65 66 67 68 69
DONOR_HYDROGENS      STATIC     ATOMS    <user>   **** ""
1 40
ATOM$BLUE        STATIC     ATOMS    COLORGROUP SYSTEM
7 63 64 65 66 67 68 69
ATOM$RED        STATIC     ATOMS    COLORGROUP SYSTEM
1 40
@<TRIPOS>COMMENT
> <Gold.Version>
5.5

> <Gold.Id.Protein>
ID|ID_protein|mol2

> <Gold.Protein.ActiveResidues>
 LEU18   LEU52   SER53   ALA55   VAL56   ALA57   MET59   PRO60   PHE61   VAL62  
 SER63   VAL64   LEU67   TRP72   PHE78   CYS79   VAL81   PHE82   ILE83   ALA84  
 MET85   ASP86   VAL87   MET88   CYS89   CYS90   SER93   TRP131  THR138  LEU139 
 LEU142  PHE161  GLU222  GLU225  LEU229  LYS248  THR251  THR252  GLY254  ILE255 

> <Gold.Score>
     Score     S(PLP)   S(hbond)     S(cho)   S(metal)  DE(clash)   DE(tors)     intcor
     84.61     -87.05       0.00       0.00       0.00       0.44       2.22       2.45

> <Gold.PLP.Fitness>
84.6125

> <Gold.PLP.PLP>
-87.0461

> <Gold.PLP.part.hbond>
0.0000

> <Gold.PLP.part.metal>
0.0000

> <Gold.PLP.part.buried>
-10.3762

> <Gold.PLP.part.nonpolar>
-76.7779

> <Gold.PLP.part.repulsive>
0.3082

> <Gold.PLP.ligand.clash>
0.4371

> <Gold.PLP.ligand.torsion>
2.2227

> <Gold.PLP.Chemscore.Hbond>
0.0000

> <Gold.PLP.Chemscore.CHOScore>
0.0000

> <Gold.PLP.Chemscore.Metal>
0.0000

> <Gold.PLP.Chemscore.Internal.Correction>
2.4490

