#       Name:                plp ligand
#       Creating user name   student
#       Creation time:       Mon Mar 18 16:44:17 2019


#       File generated by GOLD software.
#

@<TRIPOS>MOLECULE
plp ligand
    69    71     1
SMALL
GASTEIGER


@<TRIPOS>ATOM
      1 C            3.7490  -5.1234   0.4603 NONPOLAR       1 <1>               -0.0307
      2 C            4.2693  -4.3865   1.6750 NONPOLAR       1 <1>                0.0868
      3 O            4.0177  -2.9853   1.5521 ACCEPTOR       1 <1>               -0.4915
      4 C            3.9416  -2.3001   2.7467 NONPOLAR       1 <1>                0.1326
      5 C            4.4980  -2.8008   3.9374 NONPOLAR       1 <1>               -0.0192
      6 C            4.2637  -2.1819   5.1672 NONPOLAR       1 <1>               -0.0583
      7 C            3.4798  -1.0391   5.2252 NONPOLAR       1 <1>               -0.0608
      8 C            3.0101  -0.4736   4.0428 NONPOLAR       1 <1>               -0.0461
      9 C            3.2734  -1.0663   2.7896 NONPOLAR       1 <1>                0.0782
     10 C            2.8581  -0.2560   1.6077 NONPOLAR       1 <1>                0.2476
     11 O            2.6211   0.9389   1.7697 ACCEPTOR       1 <1>               -0.2701
     12 N            2.7542  -0.8657   0.3763 DONOR          1 <1>               -0.3110
     13 C            2.3745  -0.1253  -0.8181 NONPOLAR       1 <1>                0.0148
     14 C            0.8494  -0.0139  -1.0124 NONPOLAR       1 <1>               -0.0231
     15 C            0.1442   0.8149   0.0664 NONPOLAR       1 <1>               -0.0359
     16 C            0.3892   2.3282  -0.0750 NONPOLAR       1 <1>               -0.0007
     17 N            0.0848   2.8847  -1.4030 ACCEPTOR       1 <1>               -0.2991
     18 C           -1.3236   3.2857  -1.6117 NONPOLAR       1 <1>                0.0331
     19 C           -2.3414   2.2079  -1.2510 NONPOLAR       1 <1>                0.1023
     20 O           -3.7127   2.5149  -1.4857 ACCEPTOR       1 <1>               -0.4896
     21 C           -4.5268   1.4137  -1.2800 NONPOLAR       1 <1>                0.1339
     22 C           -4.1630   0.3757  -0.3853 NONPOLAR       1 <1>               -0.0188
     23 C           -4.9345  -0.7752  -0.2403 NONPOLAR       1 <1>               -0.0582
     24 C           -6.1125  -0.8960  -0.9570 NONPOLAR       1 <1>               -0.0605
     25 C           -6.5160   0.1436  -1.8014 NONPOLAR       1 <1>               -0.0448
     26 C           -5.7417   1.3142  -1.9775 NONPOLAR       1 <1>                0.0493
     27 S           -6.4878   2.4964  -3.1116 NONPOLAR       1 <1>               -0.1250
     28 C           -5.3075   3.8614  -3.2457 NONPOLAR       1 <1>               -0.0133
     29 C            0.6870   2.0959  -2.4796 NONPOLAR       1 <1>               -0.0007
     30 C            0.4980   0.5753  -2.3937 NONPOLAR       1 <1>               -0.0359
     31 H            4.1084  -6.1582   0.4581 0ÿ˜o_          1 <1>                0.0262
     32 H            4.0555  -4.6320  -0.4674 0ÿ˜o_          1 <1>                0.0262
     33 H            2.6531  -5.1483   0.4735 0ÿ˜o_          1 <1>                0.0262
     34 H            5.3497  -4.5527   1.7712 0ÿ˜o_          1 <1>                0.0694
     35 H            3.7574  -4.8166   2.5525 0ÿ˜o_          1 <1>                0.0694
     36 H            5.1323  -3.6825   3.9394 0ÿ˜o_          1 <1>                0.0654
     37 H            4.6837  -2.6002   6.0784 0ÿ˜o_          1 <1>                0.0619
     38 H            3.2593  -0.5682   6.1788 0ÿ˜o_          1 <1>                0.0618
     39 H            2.4333   0.4498   4.0984 0ÿ˜o_          1 <1>                0.0626
     40 H            3.0982  -1.8165   0.2914 0ÿ˜o_          1 <1>                0.1490
     41 H            2.8048  -0.6754  -1.6625 0ÿ˜o_          1 <1>                0.0465
     42 H            2.8470   0.8617  -0.7926 0ÿ˜o_          1 <1>                0.0465
     43 H            0.4408  -1.0323  -0.9691 0ÿ˜o_          1 <1>                0.0317
     44 H            0.4042   0.4843   1.0737 0ÿ˜o_          1 <1>                0.0281
     45 H           -0.9182   0.5762   0.0074 0ÿ˜o_          1 <1>                0.0281
     46 H            1.4430   2.5428   0.1351 0ÿ˜o_          1 <1>                0.0427
     47 H           -0.1671   2.8678   0.7017 0ÿ˜o_          1 <1>                0.0427
     48 H           -1.4806   3.6481  -2.6350 0ÿ˜o_          1 <1>                0.0460
     49 H           -1.5250   4.1643  -0.9830 0ÿ˜o_          1 <1>                0.0460
     50 H           -2.2385   2.0658  -0.1749 0ÿ˜o_          1 <1>                0.0709
     51 H           -2.1058   1.3081  -1.8220 0ÿ˜o_          1 <1>                0.0709
     52 H           -3.2658   0.4195   0.2269 0ÿ˜o_          1 <1>                0.0654
     53 H           -4.6088  -1.5639   0.4292 0ÿ˜o_          1 <1>                0.0619
     54 H           -6.7262  -1.7858  -0.8506 0ÿ˜o_          1 <1>                0.0618
     55 H           -7.4577   0.0301  -2.3326 0ÿ˜o_          1 <1>                0.0630
     56 H           -5.7533   4.6350  -3.8801 0ÿ˜o_          1 <1>                0.0344
     57 H           -4.3820   3.5323  -3.7267 0ÿ˜o_          1 <1>                0.0344
     58 H           -5.1042   4.3188  -2.2748 0ÿ˜o_          1 <1>                0.0344
     59 H            1.7649   2.3021  -2.4711 0ÿ˜o_          1 <1>                0.0427
     60 H            0.3391   2.4533  -3.4563 0ÿ˜o_          1 <1>                0.0427
     61 H            1.1007   0.0910  -3.1711 0ÿ˜o_          1 <1>                0.0281
     62 H           -0.5375   0.3180  -2.6360 0ÿ˜o_          1 <1>                0.0281
     63 ****         3.1492  -2.8670   1.0708 0ÿ˜o_          1 <1>                0.0000
     64 ****         4.7563  -2.5837   1.0106 0ÿ˜o_          1 <1>                0.0000
     65 ****         2.7083   1.3472   2.6784 0ÿ˜o_          1 <1>                0.0000
     66 ****         2.3411   1.5029   0.9929 0ÿ˜o_          1 <1>                0.0000
     67 ****         0.5440   3.7724  -1.4387 0ÿ˜o_          1 <1>                0.0000
     68 ****        -3.8184   2.8240  -2.4308 0ÿ˜o_          1 <1>                0.0000
     69 ****        -3.9924   3.2455  -0.8628 0ÿ˜o_          1 <1>                0.0000
@<TRIPOS>BOND
    1    1    2 1     
    2    2    3 1     
    3    3    4 1     
    4    4    5 ar    
    5    5    6 ar    
    6    6    7 ar    
    7    7    8 ar    
    8    8    9 ar    
    9    4    9 ar    
   10    9   10 1     
   11   10   11 2     
   12   10   12 am    
   13   12   13 1     
   14   13   14 1     
   15   14   15 1     
   16   15   16 1     
   17   16   17 1     
   18   17   18 1     
   19   18   19 1     
   20   19   20 1     
   21   20   21 1     
   22   21   22 ar    
   23   22   23 ar    
   24   23   24 ar    
   25   24   25 ar    
   26   25   26 ar    
   27   21   26 ar    
   28   26   27 1     
   29   27   28 1     
   30   17   29 1     
   31   29   30 1     
   32   14   30 1     
   33    1   31 1     
   34    1   32 1     
   35    1   33 1     
   36    2   34 1     
   37    2   35 1     
   38    5   36 1     
   39    6   37 1     
   40    7   38 1     
   41    8   39 1     
   42   12   40 1     
   43   13   41 1     
   44   13   42 1     
   45   14   43 1     
   46   15   44 1     
   47   15   45 1     
   48   16   46 1     
   49   16   47 1     
   50   18   48 1     
   51   18   49 1     
   52   19   50 1     
   53   19   51 1     
   54   22   52 1     
   55   23   53 1     
   56   24   54 1     
   57   25   55 1     
   58   28   56 1     
   59   28   57 1     
   60   28   58 1     
   61   29   59 1     
   62   29   60 1     
   63   30   61 1     
   64   30   62 1     
   65    3   63 1     
   66    3   64 1     
   67   11   65 1     
   68   11   66 1     
   69   17   67 1     
   70   20   68 1     
   71   20   69 1     
@<TRIPOS>SUBSTRUCTURE
      1 ****           1
@<TRIPOS>SET
LONE_PAIRS      STATIC     ATOMS    <user>   **** ""
7 63 64 65 66 67 68 69
DONOR_HYDROGENS      STATIC     ATOMS    <user>   **** ""
1 40
ATOM$BLUE        STATIC     ATOMS    COLORGROUP SYSTEM
7 63 64 65 66 67 68 69
ATOM$RED        STATIC     ATOMS    COLORGROUP SYSTEM
1 40
