#       Name:                C:\Users\porto\OneDrive\projekt\beta2\ligandy\L_2rh1.pdb L_2rh1.pdb 1
#       Creating user name   student
#       Creation time:       Mon Apr 08 15:41:54 2019


#       File generated by GOLD software.
#

@<TRIPOS>MOLECULE
C:\Users\porto\OneDrive\projekt\beta2\ligandy\L_2rh1.pdb L_2rh1.pdb 1|2rh1|mol2|1|dock13
    49    51     1
SMALL
GASTEIGER


@<TRIPOS>ATOM
      1 C1         -26.2317   7.2756   7.0485 C.ar           1 <1>               -0.0598
      2 C2         -25.5041   8.3125   6.4756 C.ar           1 <1>               -0.0378
      3 C3         -26.1177   9.5138   6.2080 C.ar           1 <1>                0.0476
      4 C4         -27.5307   9.6537   6.5411 C.ar           1 <1>                0.0109
      5 C5         -28.2385   8.6100   7.1096 C.ar           1 <1>               -0.0519
      6 C6         -27.5804   7.4205   7.3609 C.ar           1 <1>               -0.0611
      7 N7         -25.7097  10.7096   5.6627 N.pl3          1 <1>               -0.3540
      8 C8         -26.7664  11.5894   5.6321 C.ar           1 <1>                0.0510
      9 C9         -27.9251  10.9053   6.1943 C.ar           1 <1>                0.0490
     10 C10        -26.9181  12.8763   5.2078 C.ar           1 <1>               -0.0375
     11 C11        -28.1442  13.5105   5.3118 C.ar           1 <1>               -0.0563
     12 C12        -29.2448  12.8566   5.8476 C.ar           1 <1>               -0.0192
     13 C13        -29.1538  11.5350   6.3008 C.ar           1 <1>                0.1303
     14 O14        -30.2298  10.8893   6.8267 O.3            1 <1>               -0.4887
     15 C15        -31.3746  11.5415   7.3416 C.3            1 <1>                0.1166
     16 C16        -32.0587  10.6327   8.3319 C.3            1 <1>                0.1015
     17 O17        -33.4339  10.9712   8.3908 O.3            1 <1>               -0.3872
     18 C18        -31.8693   9.1717   7.9126 C.3            1 <1>                0.0254
     19 N19        -33.1333   8.5224   7.5795 N.3            1 <1>               -0.3112
     20 C20        -33.1671   7.2466   6.8864 C.3            1 <1>                0.0021
     21 C21        -32.3650   6.2219   7.6863 C.3            1 <1>               -0.0499
     22 C22        -32.6366   7.4191   5.4599 C.3            1 <1>               -0.0499
     23 H1         -25.7276   6.3416   7.2506 H              1 <1>                0.0618
     24 H2         -24.4591   8.1740   6.2416 H              1 <1>                0.0638
     25 H5         -29.2842   8.7339   7.3482 H              1 <1>                0.0624
     26 H6         -28.1230   6.5989   7.8045 H              1 <1>                0.0618
     27 HN7        -24.7529  10.8265   5.3596 H              1 <1>                0.1659
     28 H10        -26.0782  13.4090   4.7871 H              1 <1>                0.0638
     29 H11        -28.2552  14.5299   4.9729 H              1 <1>                0.0619
     30 H12        -30.1936  13.3675   5.9208 H              1 <1>                0.0654
     31 H151       -32.0598  11.7709   6.5254 H              1 <1>                0.0723
     32 H152       -31.0739  12.4618   7.8417 H              1 <1>                0.0723
     33 H16        -31.6141  10.7800   9.3162 H              1 <1>                0.0640
     34 HO17       -33.7722  11.0921   7.5012 H              1 <1>                0.2100
     35 H181       -31.3818   8.6236   8.7187 H              1 <1>                0.0450
     36 H182       -31.2002   9.1246   7.0532 H              1 <1>                0.0450
     37 HN19       -33.6511   8.3395   8.4267 H              1 <1>                0.1223
     38 H20        -34.2021   6.9092   6.8321 H              1 <1>                0.0455
     39 H211       -32.3863   5.2613   7.1719 H              1 <1>                0.0245
     40 H212       -31.3330   6.5600   7.7805 H              1 <1>                0.0245
     41 H213       -32.8025   6.1109   8.6788 H              1 <1>                0.0245
     42 H221       -32.6637   6.4594   4.9430 H              1 <1>                0.0245
     43 H222       -33.2586   8.1371   4.9250 H              1 <1>                0.0245
     44 H223       -31.6098   7.7840   5.4948 H              1 <1>                0.0245
     45 ****       -29.8721  10.3369   7.5796 LP             1 <1>                0.0000
     46 ****       -30.5649  10.2876   6.1017 LP             1 <1>                0.0000
     47 ****       -33.5465  11.8195   8.9083 LP             1 <1>                0.0000
     48 ****       -33.9391  10.2358   8.8424 LP             1 <1>                0.0000
     49 ****       -33.4942   9.1952   6.9338 LP             1 <1>                0.0000
@<TRIPOS>BOND
    1    1    6 ar    
    2    1    2 ar    
    3    1   23 1     
    4    2    3 ar    
    5    2   24 1     
    6    3    4 ar    
    7    3    7 ar    
    8    4    5 ar    
    9    4    9 ar    
   10    5    6 ar    
   11    5   25 1     
   12    6   26 1     
   13    7    8 ar    
   14    7   27 1     
   15    8    9 ar    
   16    8   10 ar    
   17    9   13 ar    
   18   10   11 ar    
   19   10   28 1     
   20   11   12 ar    
   21   11   29 1     
   22   12   13 ar    
   23   12   30 1     
   24   13   14 1     
   25   14   15 1     
   26   15   16 1     
   27   15   31 1     
   28   15   32 1     
   29   16   18 1     
   30   16   17 1     
   31   16   33 1     
   32   17   34 1     
   33   18   19 1     
   34   18   35 1     
   35   18   36 1     
   36   19   20 1     
   37   19   37 1     
   38   20   21 1     
   39   20   22 1     
   40   20   38 1     
   41   21   39 1     
   42   21   40 1     
   43   21   41 1     
   44   22   42 1     
   45   22   43 1     
   46   22   44 1     
   47   14   45 1     
   48   14   46 1     
   49   17   47 1     
   50   17   48 1     
   51   19   49 1     
@<TRIPOS>SUBSTRUCTURE
      1 ****           1
@<TRIPOS>SET
LONE_PAIRS      STATIC     ATOMS    <user>   **** ""
5 45 46 47 48 49
DONOR_HYDROGENS      STATIC     ATOMS    <user>   **** ""
3 27 34 37
ATOM$BLUE        STATIC     ATOMS    COLORGROUP SYSTEM
5 45 46 47 48 49
ATOM$RED        STATIC     ATOMS    COLORGROUP SYSTEM
3 27 34 37
@<TRIPOS>COMMENT
> <Gold.Version>
5.5

> <Gold.Id.Protein>
unknown|dok_beta2|pdb

> <Gold.Protein.RotatedTorsions>
[ 4175 4166 4165 4163 ] final -145.21 input -179.98 | X-H torsion
[ 1294 1290 1288 1285 ] final -118.86 input -179.99 | X-H torsion
[ 4033 4024 4023 4021 ] final -101.15 input  179.98 | X-H torsion
[ 1412 1408 1406 1403 ] final -124.87 input -179.99 | X-H torsion
[ 2830 2825 2824 2821 ] final -100.15 input -179.98 | X-H torsion
[ 2723 2714 2713 2711 ] final  -38.66 input -179.98 | X-H torsion
[ 2773 2768 2767 2764 ] final   75.09 input  180.00 | X-H torsion

> <Gold.Protein.ActiveResidues>
 TRP109  THR110  ASP113  VAL114  VAL117  THR118  PHE193  TYR199  SER203  SER207 
 PHE208  TRP286  PHE289  PHE290  ASN293  TYR308  ASN312  TYR316 

> <Gold.Protein.RotatedAtoms>
  -33.9967    4.0526    2.4432 H   0  0  0  0  0  0  0  0  0  0  0  0  # atno 1294 bound_to 1290
  -26.5985   14.9256    2.2555 H   0  0  0  0  0  0  0  0  0  0  0  0  # atno 1412 bound_to 1408
  -25.9543    8.3332    1.6843 H   0  0  0  0  0  0  0  0  0  0  0  0  # atno 2723 bound_to 2714
  -23.8459   10.3147    2.2132 H   0  0  0  0  0  0  0  0  0  0  0  0  # atno 2773 bound_to 2768
  -24.8410   13.8759    2.1143 H   0  0  0  0  0  0  0  0  0  0  0  0  # atno 2830 bound_to 2825
  -27.9000    5.6142   11.2144 H   0  0  0  0  0  0  0  0  0  0  0  0  # atno 4033 bound_to 4024
  -36.0637    9.0949    7.8553 H   0  0  0  0  0  0  0  0  0  0  0  0  # atno 4175 bound_to 4166
  -37.4670    9.0578    7.0870 LP  0  0  0  0  0  0  0  0  0  0  0  0  # atno 4597 bound_to 4166
  -37.2566    8.2288    8.4781 LP  0  0  0  0  0  0  0  0  0  0  0  0  # atno 4598 bound_to 4166
  -34.6339    3.6813    1.0228 LP  0  0  0  0  0  0  0  0  0  0  0  0  # atno 4603 bound_to 1290
  -35.3765    4.7426    2.0172 LP  0  0  0  0  0  0  0  0  0  0  0  0  # atno 4604 bound_to 1290
  -28.5134    7.0762   11.4349 LP  0  0  0  0  0  0  0  0  0  0  0  0  # atno 4607 bound_to 4024
  -29.3334    5.9483   10.5851 LP  0  0  0  0  0  0  0  0  0  0  0  0  # atno 4608 bound_to 4024
  -28.1187   14.5140    1.9711 LP  0  0  0  0  0  0  0  0  0  0  0  0  # atno 4611 bound_to 1408
  -27.6789   15.1292    3.4185 LP  0  0  0  0  0  0  0  0  0  0  0  0  # atno 4612 bound_to 1408
  -24.4006   12.6870    3.0903 LP  0  0  0  0  0  0  0  0  0  0  0  0  # atno 4613 bound_to 2825
  -23.2916   13.7201    2.4823 LP  0  0  0  0  0  0  0  0  0  0  0  0  # atno 4614 bound_to 2825

> <Gold.Score>
     Score         DG    S(hbond)    S(metal)    S(lipo)     H(rot)  DE(clash)    DE(int)     intcor
     40.66     -42.25       2.90        0.00     280.74       2.25       0.08       1.50       0.02

> <Gold.Chemscore.Fitness>
40.6637

> <Gold.Chemscore.DG>
-42.2457

> <Gold.Chemscore.ZeroCoef>
-5.4800

> <Gold.Chemscore.Hbond>
2.8975

> <Gold.Chemscore.Metal>
0.0000

> <Gold.Chemscore.Lipo>
280.7356

> <Gold.Chemscore.Internal_Hbond>
0.0000

> <Gold.Chemscore.DEClash>
0.0780

> <Gold.Chemscore.DEInternal>
1.5040

> <Gold.Chemscore.Rot>
2.2493

> <Gold.Chemscore.Internal.Correction>
0.0195

> <Gold.Chemscore.Hbonds>
donor molecule, donor type, donor heavy atom, donor atom, acceptor molecule, acceptor atom, score
      L1  H    17    34       P1  1334  0.99
      L1  H    19    37       P1  4098  0.97
      P1  H  4097  4104       L1    17  0.94

> <Gold.Chemscore.Hbond.Weighted>
-9.6777

> <Gold.Chemscore.Metal.Weighted>
-0.0000

> <Gold.Chemscore.Lipo.Weighted>
-32.8461

> <Gold.Chemscore.Internal_Hbond.Weighted>
0.0000

> <Gold.Chemscore.DEClash.Weighted>
0.0780

> <Gold.Chemscore.DEInternal.Weighted>
1.5040

> <Gold.Chemscore.Rot.Weighted>
5.7581

> <Gold.Chemscore.Internal.Correction.Weighted>
0.0195

