#       Name:                C:\Users\porto\OneDrive\projekt\beta2\ligandy\L_3ny8.pdb L_3ny8.pdb 1
#       Creating user name   student
#       Creation time:       Mon Apr 01 15:46:57 2019


#       File generated by GOLD software.
#

@<TRIPOS>MOLECULE
C:\Users\porto\OneDrive\projekt\beta2\ligandy\L_3ny8.pdb L_3ny8.pdb 1|3ny8|mol2|1|dock21
    52    53     1
SMALL
GASTEIGER


@<TRIPOS>ATOM
      1 C1         -26.4072  10.9174   5.6967 C.3            1 <1>               -0.0268
      2 N1         -34.4095   6.6657   7.9060 N.3            1 <1>               -0.3087
      3 O1         -30.3317   8.5726   7.3576 O.3            1 <1>               -0.4891
      4 C2         -26.3057   9.4218   5.5594 C.3            1 <1>               -0.0449
      5 O2         -31.9790   6.6958   9.0567 O.3            1 <1>               -0.3869
      6 C3         -27.3147   8.8066   6.5048 C.3            1 <1>               -0.0237
      7 C4         -28.4269   9.8848   6.5264 C.ar           1 <1>               -0.0023
      8 C5         -27.8932  11.0941   6.0576 C.ar           1 <1>               -0.0378
      9 C6         -28.7142  12.2091   5.9388 C.ar           1 <1>               -0.0468
     10 C7         -28.1421  13.5134   5.4009 C.3            1 <1>               -0.0394
     11 C8         -30.0564  12.1441   6.2951 C.ar           1 <1>               -0.0551
     12 C9         -30.5988  10.9443   6.7526 C.ar           1 <1>               -0.0194
     13 C10        -29.7902   9.8025   6.8525 C.ar           1 <1>                0.1241
     14 C11        -31.7209   8.2484   7.2298 C.3            1 <1>                0.1169
     15 C12        -31.9709   6.7733   7.6491 C.3            1 <1>                0.1041
     16 C13        -33.3024   6.2047   7.0720 C.3            1 <1>                0.0342
     17 C14        -33.5418   6.7023   5.6527 C.3            1 <1>               -0.0472
     18 C15        -35.4045   5.6457   8.1812 C.3            1 <1>                0.0023
     19 C16        -34.6969   4.3701   8.6131 C.3            1 <1>               -0.0499
     20 C17        -36.3030   6.0983   9.3276 C.3            1 <1>               -0.0499
     21 H11        -26.2172  11.3797   4.7277 H              1 <1>                0.0313
     22 H12        -25.7939  11.2426   6.5371 H              1 <1>                0.0313
     23 HN1        -34.0523   6.9809   8.7961 H              1 <1>                0.1225
     24 H21        -25.3031   9.0986   5.8393 H              1 <1>                0.0272
     25 H22        -26.5452   9.1345   4.5357 H              1 <1>                0.0272
     26 HO2        -32.4672   7.4400   9.4158 H              1 <1>                0.2100
     27 H31        -26.8726   8.7279   7.4977 H              1 <1>                0.0314
     28 H32        -27.7104   7.8927   6.0608 H              1 <1>                0.0314
     29 H71        -28.9249  14.2720   5.3789 H              1 <1>                0.0278
     30 H72        -27.3307  13.8480   6.0462 H              1 <1>                0.0278
     31 H73        -27.7613  13.3547   4.3919 H              1 <1>                0.0278
     32 H8         -30.6788  13.0236   6.2174 H              1 <1>                0.0621
     33 H9         -31.6417  10.8941   7.0304 H              1 <1>                0.0654
     34 H111       -32.0332   8.3891   6.1952 H              1 <1>                0.0723
     35 H112       -32.3090   8.9112   7.8652 H              1 <1>                0.0723
     36 H12        -31.1471   6.1651   7.2756 H              1 <1>                0.0643
     37 H13        -33.2689   5.1153   7.0773 H              1 <1>                0.0484
     38 H141       -32.7275   6.3709   5.0088 H              1 <1>                0.0245
     39 H142       -34.4844   6.3016   5.2811 H              1 <1>                0.0245
     40 H143       -33.5845   7.7916   5.6513 H              1 <1>                0.0245
     41 H15        -36.0029   5.4571   7.2901 H              1 <1>                0.0455
     42 H161       -35.4362   3.5972   8.8220 H              1 <1>                0.0245
     43 H162       -34.0355   4.0328   7.8156 H              1 <1>                0.0245
     44 H163       -34.1111   4.5652   9.5120 H              1 <1>                0.0245
     45 H171       -37.0492   5.3294   9.5307 H              1 <1>                0.0245
     46 H172       -35.6996   6.2629  10.2200 H              1 <1>                0.0245
     47 H173       -36.8042   7.0260   9.0522 H              1 <1>                0.0245
     48 ****       -34.8511   7.3978   7.3873 LP             1 <1>                0.0000
     49 ****       -30.1294   8.5584   8.3368 LP             1 <1>                0.0000
     50 ****       -29.8292   7.8373   6.9028 LP             1 <1>                0.0000
     51 ****       -31.0390   6.7185   9.3970 LP             1 <1>                0.0000
     52 ****       -32.4159   5.8424   9.3409 LP             1 <1>                0.0000
@<TRIPOS>BOND
    1    1    4 1     
    2    1    8 1     
    3    1   21 1     
    4    1   22 1     
    5    2   16 1     
    6    2   18 1     
    7    2   23 1     
    8    3   13 1     
    9    3   14 1     
   10    4    6 1     
   11    4   24 1     
   12    4   25 1     
   13    5   15 1     
   14    5   26 1     
   15    6    7 1     
   16    6   27 1     
   17    6   28 1     
   18    7    8 ar    
   19    7   13 ar    
   20    8    9 ar    
   21    9   10 1     
   22    9   11 ar    
   23   10   29 1     
   24   10   30 1     
   25   10   31 1     
   26   11   12 ar    
   27   11   32 1     
   28   12   13 ar    
   29   12   33 1     
   30   14   15 1     
   31   14   34 1     
   32   14   35 1     
   33   15   16 1     
   34   15   36 1     
   35   16   17 1     
   36   16   37 1     
   37   17   38 1     
   38   17   39 1     
   39   17   40 1     
   40   18   19 1     
   41   18   20 1     
   42   18   41 1     
   43   19   42 1     
   44   19   43 1     
   45   19   44 1     
   46   20   45 1     
   47   20   46 1     
   48   20   47 1     
   49    2   48 1     
   50    3   49 1     
   51    3   50 1     
   52    5   51 1     
   53    5   52 1     
@<TRIPOS>SUBSTRUCTURE
      1 ****           1
@<TRIPOS>SET
LONE_PAIRS      STATIC     ATOMS    <user>   **** ""
5 48 49 50 51 52
DONOR_HYDROGENS      STATIC     ATOMS    <user>   **** ""
2 23 26
ATOM$BLUE        STATIC     ATOMS    COLORGROUP SYSTEM
5 48 49 50 51 52
ATOM$RED        STATIC     ATOMS    COLORGROUP SYSTEM
2 23 26
@<TRIPOS>COMMENT
> <Gold.Version>
5.5

> <Gold.Id.Protein>
unknown|dok_beta2|pdb

> <Gold.Protein.RotatedTorsions>
[ 4175 4166 4165 4163 ] final   68.69 input -179.98 | X-H torsion
[ 1294 1290 1288 1285 ] final  132.18 input -179.99 | X-H torsion
[ 4033 4024 4023 4021 ] final  148.59 input  179.98 | X-H torsion
[ 1412 1408 1406 1403 ] final   30.35 input -179.99 | X-H torsion
[ 2830 2825 2824 2821 ] final -109.11 input -179.98 | X-H torsion
[ 2723 2714 2713 2711 ] final -111.27 input -179.98 | X-H torsion
[ 2773 2768 2767 2764 ] final   57.73 input  180.00 | X-H torsion

> <Gold.Protein.ActiveResidues>
 TRP109  THR110  ASP113  VAL114  VAL117  THR118  PHE193  TYR199  SER203  SER207 
 PHE208  TRP286  PHE289  PHE290  ASN293  TYR308  ASN312  TYR316 

> <Gold.Protein.RotatedAtoms>
  -34.4802    3.6434    1.1133 H   0  0  0  0  0  0  0  0  0  0  0  0  # atno 1294 bound_to 1290
  -28.1303   14.9529    3.1372 H   0  0  0  0  0  0  0  0  0  0  0  0  # atno 1412 bound_to 1408
  -26.2249    8.2346    2.7165 H   0  0  0  0  0  0  0  0  0  0  0  0  # atno 2723 bound_to 2714
  -23.7437   10.5342    2.3394 H   0  0  0  0  0  0  0  0  0  0  0  0  # atno 2773 bound_to 2768
  -24.9287   13.7815    2.1722 H   0  0  0  0  0  0  0  0  0  0  0  0  # atno 2830 bound_to 2825
  -28.3845    6.9921   11.4851 H   0  0  0  0  0  0  0  0  0  0  0  0  # atno 4033 bound_to 4024
  -37.6948    8.8196    7.3457 H   0  0  0  0  0  0  0  0  0  0  0  0  # atno 4175 bound_to 4166
  -36.8550    8.2966    8.6036 LP  0  0  0  0  0  0  0  0  0  0  0  0  # atno 4597 bound_to 4166
  -36.1683    9.2770    7.4928 LP  0  0  0  0  0  0  0  0  0  0  0  0  # atno 4598 bound_to 4166
  -35.4360    4.6922    1.8535 LP  0  0  0  0  0  0  0  0  0  0  0  0  # atno 4603 bound_to 1290
  -34.0705    4.1580    2.5723 LP  0  0  0  0  0  0  0  0  0  0  0  0  # atno 4604 bound_to 1290
  -29.3856    6.0967   10.6143 LP  0  0  0  0  0  0  0  0  0  0  0  0  # atno 4607 bound_to 4024
  -27.9566    5.4925   11.1238 LP  0  0  0  0  0  0  0  0  0  0  0  0  # atno 4608 bound_to 4024
  -26.5772   15.1095    2.7844 LP  0  0  0  0  0  0  0  0  0  0  0  0  # atno 4611 bound_to 1408
  -27.6241   14.5052    1.6865 LP  0  0  0  0  0  0  0  0  0  0  0  0  # atno 4612 bound_to 1408
  -24.2563   12.6811    3.1195 LP  0  0  0  0  0  0  0  0  0  0  0  0  # atno 4613 bound_to 2825
  -23.3445   13.8244    2.3928 LP  0  0  0  0  0  0  0  0  0  0  0  0  # atno 4614 bound_to 2825

> <Gold.Score>
     Score     S(PLP)   S(hbond)     S(cho)   S(metal)  DE(clash)   DE(tors)     intcor
     67.58     -64.82       1.98       0.00       0.00       0.00       1.62       0.07

> <Gold.PLP.Fitness>
67.5757

> <Gold.PLP.PLP>
-64.8237

> <Gold.PLP.part.hbond>
-2.0000

> <Gold.PLP.part.metal>
0.0000

> <Gold.PLP.part.buried>
-5.5771

> <Gold.PLP.part.nonpolar>
-57.8693

> <Gold.PLP.part.repulsive>
0.0140

> <Gold.PLP.ligand.clash>
0.0000

> <Gold.PLP.ligand.torsion>
1.6197

> <Gold.PLP.Chemscore.Hbond>
1.9750

> <Gold.PLP.Chemscore.CHOScore>
0.0000

> <Gold.PLP.Chemscore.Metal>
0.0000

> <Gold.Chemscore.Hbonds>
donor molecule, donor type, donor heavy atom, donor atom, acceptor molecule, acceptor atom, score
      L1  H     2    23       P1  4098  0.98
      L1  H     5    26       P1  4098  1.00

> <Gold.PLP.Chemscore.Internal.Correction>
0.0665

