#       Name:                C:\Users\porto\OneDrive\projekt\beta1\ligandy\L_6h7n.pdb L_6h7n.pdb 1
#       Creating user name   student
#       Creation time:       Wed Apr 10 11:45:26 2019


#       File generated by GOLD software.
#

@<TRIPOS>MOLECULE
C:\Users\porto\OneDrive\projekt\beta1\ligandy\L_6h7n.pdb L_6h7n.pdb 1|6h7n|mol2|1|dock61
    60    61     1
SMALL
GASTEIGER


@<TRIPOS>ATOM
      1 C1         -22.9142   4.0568  11.1759 C.3            1 <1>                0.0396
      2 N1         -22.8566   3.7631  12.6061 N.am           1 <1>               -0.2813
      3 O1         -23.4771   1.7584  10.7033 O.3            1 <1>               -0.3767
      4 C2         -23.8738   3.1088  10.5043 C.3            1 <1>                0.0635
      5 N2         -22.5954   4.5770  14.7699 N.am           1 <1>               -0.2980
      6 O2         -23.5450   5.8303  13.2116 O.2            1 <1>               -0.2526
      7 C3         -23.4743   1.4574  12.0940 C.3            1 <1>                0.0635
      8 N3         -21.6224   7.6036  16.8153 N.3            1 <1>               -0.3119
      9 O3         -21.6413  11.3161  18.9497 O.3            1 <1>               -0.4894
     10 C4         -22.5482   2.3601  12.8729 C.3            1 <1>                0.0396
     11 O4         -25.6513  15.0094  19.7925 O.3            1 <1>               -0.5068
     12 C5         -23.0329   4.7615  13.5388 C.2            1 <1>                0.3024
     13 O5         -20.5338   8.7462  19.2958 O.3            1 <1>               -0.3872
     14 C6         -22.7019   5.6005  15.8022 C.3            1 <1>                0.0256
     15 C7         -21.4961   6.5173  15.8407 C.3            1 <1>                0.0116
     16 C8         -20.4345   8.4551  16.8839 C.3            1 <1>                0.0252
     17 C9         -20.4901   9.4316  18.0517 C.3            1 <1>                0.1015
     18 C10        -21.7096  10.3181  17.9213 C.3            1 <1>                0.1166
     19 C11        -22.6644  12.2203  19.0970 C.ar           1 <1>                0.1209
     20 C12        -22.6629  12.9672  20.2678 C.ar           1 <1>               -0.0165
     21 C13        -23.6578  13.9051  20.5039 C.ar           1 <1>               -0.0167
     22 C14        -24.6670  14.0984  19.5744 C.ar           1 <1>                0.1171
     23 C15        -24.6710  13.3538  18.4095 C.ar           1 <1>               -0.0167
     24 C16        -23.6788  12.4193  18.1683 C.ar           1 <1>               -0.0165
     25 H11        -21.9222   3.9382  10.7411 H              1 <1>                0.0488
     26 H12        -23.2539   5.0819  11.0297 H              1 <1>                0.0488
     27 H21        -23.9076   3.3230   9.4360 H              1 <1>                0.0575
     28 H22        -24.8747   3.2569  10.9105 H              1 <1>                0.0575
     29 HN2        -22.1669   3.6988  15.0273 H              1 <1>                0.1503
     30 H31        -23.1760   0.4193  12.2389 H              1 <1>                0.0575
     31 H32        -24.4863   1.5506  12.4867 H              1 <1>                0.0575
     32 HN3        -21.7904   7.1851  17.7192 H              1 <1>                0.1221
     33 H41        -22.6588   2.1600  13.9391 H              1 <1>                0.0488
     34 H42        -21.5163   2.1544  12.5877 H              1 <1>                0.0488
     35 HO4        -25.7622  15.1417  20.7364 H              1 <1>                0.2921
     36 HO5        -19.8050   8.1228  19.3438 H              1 <1>                0.2100
     37 H61        -22.8257   5.1227  16.7743 H              1 <1>                0.0475
     38 H62        -23.6012   6.1923  15.6343 H              1 <1>                0.0475
     39 H71        -20.6034   5.9327  16.0646 H              1 <1>                0.0439
     40 H72        -21.3297   6.9378  14.8494 H              1 <1>                0.0439
     41 H81        -20.3319   9.0104  15.9515 H              1 <1>                0.0450
     42 H82        -19.5457   7.8303  16.9751 H              1 <1>                0.0450
     43 H9         -19.5982  10.0574  18.0281 H              1 <1>                0.0640
     44 H101       -21.7036  10.8022  16.9443 H              1 <1>                0.0723
     45 H102       -22.6102   9.7185  18.0561 H              1 <1>                0.0723
     46 H12        -21.8841  12.8202  21.0014 H              1 <1>                0.0655
     47 H13        -23.6466  14.4864  21.4138 H              1 <1>                0.0655
     48 H15        -25.4527  13.4993  17.6784 H              1 <1>                0.0655
     49 H16        -23.6943  11.8442  17.2542 H              1 <1>                0.0655
     50 ****       -22.5581   1.6242  10.3327 LP             1 <1>                0.0000
     51 ****       -24.1179   1.1514  10.2334 LP             1 <1>                0.0000
     52 ****       -23.8350   5.9770  12.2659 LP             1 <1>                0.0000
     53 ****       -23.6715   6.5530  13.8911 LP             1 <1>                0.0000
     54 ****       -22.3767   8.1952  16.5304 LP             1 <1>                0.0000
     55 ****       -20.8094  11.8457  18.7835 LP             1 <1>                0.0000
     56 ****       -21.5584  10.8295  19.8194 LP             1 <1>                0.0000
     57 ****       -26.5080  14.6746  19.4001 LP             1 <1>                0.0000
     58 ****       -25.4037  15.8770  19.3612 LP             1 <1>                0.0000
     59 ****       -21.4001   8.2529  19.3742 LP             1 <1>                0.0000
     60 ****       -20.4574   9.4065  20.0429 LP             1 <1>                0.0000
@<TRIPOS>BOND
    1    1    2 1     
    2    1    4 1     
    3    1   25 1     
    4    1   26 1     
    5    2   10 1     
    6    2   12 am    
    7    3    4 1     
    8    3    7 1     
    9    4   27 1     
   10    4   28 1     
   11    5   12 am    
   12    5   14 1     
   13    5   29 1     
   14    6   12 2     
   15    7   10 1     
   16    7   30 1     
   17    7   31 1     
   18    8   16 1     
   19    8   15 1     
   20    8   32 1     
   21    9   18 1     
   22    9   19 1     
   23   10   33 1     
   24   10   34 1     
   25   11   22 1     
   26   11   35 1     
   27   13   17 1     
   28   13   36 1     
   29   14   15 1     
   30   14   37 1     
   31   14   38 1     
   32   15   39 1     
   33   15   40 1     
   34   16   17 1     
   35   16   41 1     
   36   16   42 1     
   37   17   18 1     
   38   17   43 1     
   39   18   44 1     
   40   18   45 1     
   41   19   20 ar    
   42   19   24 ar    
   43   20   21 ar    
   44   20   46 1     
   45   21   22 ar    
   46   21   47 1     
   47   22   23 ar    
   48   23   24 ar    
   49   23   48 1     
   50   24   49 1     
   51    3   50 1     
   52    3   51 1     
   53    6   52 1     
   54    6   53 1     
   55    8   54 1     
   56    9   55 1     
   57    9   56 1     
   58   11   57 1     
   59   11   58 1     
   60   13   59 1     
   61   13   60 1     
@<TRIPOS>SUBSTRUCTURE
      1 ****           1
@<TRIPOS>SET
LONE_PAIRS      STATIC     ATOMS    <user>   **** ""
11 50 51 52 53 54 55 56 57 58 59 60
DONOR_HYDROGENS      STATIC     ATOMS    <user>   **** ""
4 29 32 35 36
ATOM$BLUE        STATIC     ATOMS    COLORGROUP SYSTEM
11 50 51 52 53 54 55 56 57 58 59 60
ATOM$RED        STATIC     ATOMS    COLORGROUP SYSTEM
4 29 32 35 36
@<TRIPOS>COMMENT
> <Gold.Version>
5.6

> <Gold.Id.Protein>
unknown|bialko_beta1 1|pdb

> <Gold.Protein.ActiveResidues>
 ALA86   ASP87   VAL90   VAL94   VAL95   GLY98   ALA99   LEU101  VAL102  CYS114 
 GLU115  TRP117  THR118  SER119  LEU120  ASP121  VAL122  CYS124  VAL125  THR126 
 SER128  SER173  PHE174  ILE177  CYS199  ASP200  PHE201  TYR207  SER215  PHE299 
 TRP303  PHE306  PHE307  ASN310  PHE325  VAL326  ASN329  TRP330  GLY332  TYR333 
 SER336 

> <Gold.Score>
     Fitness  S(hb_ext) S(vdw_ext)  S(hb_int)    S(int)      intcor
     54.50       0.00      39.95       0.00      -0.43     -16.29

> <Gold.Goldscore.Fitness>
54.5014

> <Gold.Goldscore.Internal.Vdw>
-12.9493

> <Gold.Goldscore.Internal.Torsion>
-3.7708

> <Gold.Goldscore.External.Vdw>
39.9490

> <Gold.Goldscore.Internal.HBond>
0.0000

> <Gold.Goldscore.External.HBond>
0.0000

> <Gold.Goldscore.Internal.Correction>
-16.2916

> <Gold.Goldscore.Internal.Vdw.Weighted>
-12.9493

> <Gold.Goldscore.Internal.Torsion.Weighted>
-3.7708

> <Gold.Goldscore.External.Vdw.Weighted>
54.9299

> <Gold.Goldscore.Internal.HBond.Weighted>
0.0000

> <Gold.Goldscore.External.HBond.Weighted>
0.0000

> <Gold.Goldscore.Internal.Correction.Weighted>
-16.2916

