#       Name:                *****
#       Creating user name   mateusz
#       Creation time:       Tue Jul 17 17:22:38 2018


#       File generated by GOLD software.
#

@<TRIPOS>MOLECULE
*****|L03407810|mol2|1|dock21
    48    50     1
SMALL
GASTEIGER


@<TRIPOS>ATOM
      1 C           17.9164  20.3967  12.8468 C.ar           1 <1>               -0.0588
      2 C           18.7513  19.6401  12.0216 C.ar           1 <1>               -0.0584
      3 C           18.2451  18.5363  11.3247 C.ar           1 <1>               -0.0445
      4 C           16.8899  18.2045  11.4575 C.ar           1 <1>               -0.0233
      5 C           16.0677  18.9658  12.2805 C.ar           1 <1>                0.1237
      6 C           16.5683  20.0576  12.9771 C.ar           1 <1>               -0.0264
      7 F           14.7769  18.6345  12.3992 F              1 <1>               -0.2055
      8 C           19.1384  17.7314  10.4250 C.3            1 <1>               -0.0228
      9 C           20.5950  18.1908  10.5250 C.3            1 <1>               -0.0086
     10 C           20.9073  19.3418   9.5819 C.3            1 <1>               -0.0334
     11 N           21.3666  18.8237   8.2543 N.4            1 <1>                0.2273
     12 H           20.5725  18.5348   7.6691 H              1 <1>                0.2013
     13 H           21.8180  19.5972   7.7429 H              1 <1>                0.2013
     14 C           22.3475  17.6902   8.3118 C.3            1 <1>               -0.0282
     15 C           22.9857  17.4293   6.9448 C.3            1 <1>                0.0300
     16 C           23.5063  16.0231   6.8502 C.ar           1 <1>                0.0516
     17 C           23.1549  15.2064   5.7948 C.ar           1 <1>               -0.0219
     18 C           23.6487  13.9239   5.8329 C.ar           1 <1>                0.0331
     19 N           24.4065  13.4529   6.8379 N.ar           1 <1>               -0.2202
     20 C           24.6720  14.3028   7.8464 C.ar           1 <1>                0.2361
     21 N           24.2537  15.5890   7.8858 N.ar           1 <1>               -0.2166
     22 N           25.4100  13.8165   8.9537 N.pl3          1 <1>               -0.2745
     23 C           26.0174  14.5544   9.9429 C.ar           1 <1>                0.0321
     24 C           26.6391  13.6388  10.7579 C.ar           1 <1>                0.0458
     25 N           26.4174  12.3609  10.3135 N.ar           1 <1>               -0.2436
     26 C           25.6783  12.4991   9.2347 C.ar           1 <1>                0.1026
     27 H           18.3134  21.2491  13.3898 H              1 <1>                0.0619
     28 H           19.7983  19.9210  11.9356 H              1 <1>                0.0620
     29 H           16.4558  17.3576  10.9335 H              1 <1>                0.0649
     30 H           15.9089  20.6362  13.6151 H              1 <1>                0.0646
     31 H           18.7668  17.8275   9.3983 H              1 <1>                0.0315
     32 H           19.0580  16.6660  10.6757 H              1 <1>                0.0315
     33 H           21.2596  17.3543  10.2713 H              1 <1>                0.0320
     34 H           20.8373  18.4769  11.5559 H              1 <1>                0.0320
     35 H           21.7050  19.9634   9.9970 H              1 <1>                0.0814
     36 H           20.0187  19.9547   9.4009 H              1 <1>                0.0814
     37 H           21.8036  16.8259   8.7064 H              1 <1>                0.0817
     38 H           23.1057  17.9908   9.0442 H              1 <1>                0.0817
     39 H           23.7982  18.1465   6.7762 H              1 <1>                0.0380
     40 H           22.2541  17.5576   6.1401 H              1 <1>                0.0380
     41 H           22.5240  15.5362   4.9786 H              1 <1>                0.0651
     42 H           23.4335  13.2117   5.0394 H              1 <1>                0.0831
     43 H           25.9626  15.6337   9.9676 H              1 <1>                0.0829
     44 H           27.2358  13.8337  11.6403 H              1 <1>                0.0845
     45 H           25.3194  11.6860   8.6190 H              1 <1>                0.1033
     46 ****        24.7562  12.5161   6.8361 LP             1 <1>                0.0000
     47 ****        24.4884  16.1912   8.6489 LP             1 <1>                0.0000
     48 ****        26.7461  11.5090  10.7211 LP             1 <1>                0.0000
@<TRIPOS>BOND
    1    1    2 ar    
    2    2    3 ar    
    3    3    4 ar    
    4    4    5 ar    
    5    5    6 ar    
    6    1    6 ar    
    7    5    7 1     
    8    3    8 1     
    9    8    9 1     
   10    9   10 1     
   11   10   11 1     
   12   11   12 1     
   13   11   13 1     
   14   11   14 1     
   15   14   15 1     
   16   15   16 1     
   17   16   17 ar    
   18   17   18 ar    
   19   18   19 ar    
   20   19   20 ar    
   21   20   21 ar    
   22   16   21 ar    
   23   20   22 1     
   24   22   23 ar    
   25   23   24 ar    
   26   24   25 ar    
   27   25   26 ar    
   28   22   26 ar    
   29    1   27 1     
   30    2   28 1     
   31    4   29 1     
   32    6   30 1     
   33    8   31 1     
   34    8   32 1     
   35    9   33 1     
   36    9   34 1     
   37   10   35 1     
   38   10   36 1     
   39   14   37 1     
   40   14   38 1     
   41   15   39 1     
   42   15   40 1     
   43   17   41 1     
   44   18   42 1     
   45   23   43 1     
   46   24   44 1     
   47   26   45 1     
   48   19   46 1     
   49   21   47 1     
   50   25   48 1     
@<TRIPOS>SUBSTRUCTURE
      1 ****           1
@<TRIPOS>SET
LONE_PAIRS      STATIC     ATOMS    <user>   **** ""
3 46 47 48
DONOR_HYDROGENS      STATIC     ATOMS    <user>   **** ""
2 12 13
ATOM$BLUE        STATIC     ATOMS    COLORGROUP SYSTEM
3 46 47 48
ATOM$RED        STATIC     ATOMS    COLORGROUP SYSTEM
2 12 13
@<TRIPOS>COMMENT
> <Gold.Version>
5.5

> <Gold.Id.Protein>
unknown|2rh1_2rh1_448|pdb

> <Gold.Protein.RotatedTorsions>
[ 3940 3931 3930 3928 ] final  -21.74 input  179.99 | X-H torsion
[ 1421 1414 1412 1409 ] final  117.56 input -180.00 | X-H torsion
[ 2629 2624 2623 2620 ] final   85.54 input -179.96 | X-H torsion
[ 2564 2555 2554 2552 ] final  162.96 input  179.98 | X-H torsion

> <Gold.Protein.ActiveResidues>
 VAL130  VAL134  VAL138  THR141  TRP148  CYS155  PHE158  ILE159  ASP162  VAL163 
 CYS165  CYS166  THR167  LEU218  CYS231  LEU232  ILE233  TYR239  SER243  ALA247 
 PHE248  PHE336  TRP340  PHE343  PHE344  ARG367  LEU370  TRP371  TYR374 

> <Gold.Protein.RotatedAtoms>
   21.9460   10.5605    3.4945 H   0  0  0  0  0  0  0  0  0  0  0  0  # atno 1421 bound_to 1414
   22.0550    9.8587   10.2706 H   0  0  0  0  0  0  0  0  0  0  0  0  # atno 2564 bound_to 2555
   24.4153    8.5869    8.7217 H   0  0  0  0  0  0  0  0  0  0  0  0  # atno 2629 bound_to 2624
   17.8092   20.6393    7.0861 H   0  0  0  0  0  0  0  0  0  0  0  0  # atno 3940 bound_to 3931
   18.3165   21.8438    8.0106 LP  0  0  0  0  0  0  0  0  0  0  0  0  # atno 4372 bound_to 3931
   19.3648   20.7218    7.4549 LP  0  0  0  0  0  0  0  0  0  0  0  0  # atno 4373 bound_to 3931
   23.2267   11.4787    3.2166 LP  0  0  0  0  0  0  0  0  0  0  0  0  # atno 4376 bound_to 1414
   23.3986    9.8931    3.5671 LP  0  0  0  0  0  0  0  0  0  0  0  0  # atno 4377 bound_to 1414
   25.5105    9.6125    8.1641 LP  0  0  0  0  0  0  0  0  0  0  0  0  # atno 4378 bound_to 2624
   24.4045   10.0923    9.2655 LP  0  0  0  0  0  0  0  0  0  0  0  0  # atno 4379 bound_to 2624

> <Gold.Score>
     Score     S(PLP)   S(hbond)     S(cho)   S(metal)  DE(clash)   DE(tors)    DE(con)     intcor
     79.28     -71.67       2.00       1.00       0.00       0.00       0.78      -0.00       0.17

> <Gold.PLP.Fitness>
79.2788

> <Gold.PLP.PLP>
-71.6708

> <Gold.PLP.part.hbond>
-1.5389

> <Gold.PLP.part.metal>
0.0000

> <Gold.PLP.part.buried>
-3.9538

> <Gold.PLP.part.nonpolar>
-65.2449

> <Gold.PLP.part.repulsive>
0.1495

> <Gold.PLP.ligand.clash>
0.0000

> <Gold.PLP.ligand.torsion>
0.7798

> <Gold.PLP.Chemscore.Hbond>
2.0000

> <Gold.PLP.Chemscore.CHOScore>
1.0000

> <Gold.PLP.Chemscore.Metal>
0.0000

> <Gold.Chemscore.Hbonds>
donor molecule, donor type, donor heavy atom, donor atom, acceptor molecule, acceptor atom, score
      L1  H    11    12       P1  1348  2.00
      L1  C    26    45       P1  2624  1.00

> <Gold.PLP.Chemscore.Internal.Correction>
0.1676

> <Gold.PLP.Constraint>
-0.0000

