#       Name:                *****
#       Creating user name   mateusz
#       Creation time:       Tue Jul 24 23:35:16 2018


#       File generated by GOLD software.
#

@<TRIPOS>MOLECULE
*****|L03407810_m1_21|mol2|1|dock63
    48    50     1
SMALL
GASTEIGER


@<TRIPOS>ATOM
      1 C           22.2984  14.7449   6.7315 C.ar           1 <1>               -0.0588
      2 C           22.1422  16.0970   7.0446 C.ar           1 <1>               -0.0584
      3 C           22.6426  17.0839   6.1867 C.ar           1 <1>               -0.0445
      4 C           23.2939  16.7002   5.0065 C.ar           1 <1>               -0.0233
      5 C           23.4422  15.3513   4.7042 C.ar           1 <1>                0.1237
      6 C           22.9519  14.3704   5.5559 C.ar           1 <1>               -0.0264
      7 F           24.0690  15.0010   3.5753 F              1 <1>               -0.2055
      8 C           22.4615  18.5382   6.5147 C.3            1 <1>               -0.0228
      9 C           21.0701  18.8138   7.0898 C.3            1 <1>               -0.0086
     10 C           20.9762  18.4782   8.5698 C.3            1 <1>               -0.0334
     11 N           19.5813  18.6929   9.0699 N.4            1 <1>                0.2273
     12 H           18.8848  18.4592   8.3511 H              1 <1>                0.2013
     13 H           19.4093  18.0336   9.8441 H              1 <1>                0.2013
     14 C           19.2875  20.0723   9.5810 C.3            1 <1>               -0.0282
     15 C           17.7870  20.2828   9.8002 C.3            1 <1>                0.0300
     16 C           17.5326  21.1715  10.9846 C.ar           1 <1>                0.0516
     17 C           17.2058  20.6376  12.2145 C.ar           1 <1>               -0.0219
     18 C           16.9464  21.5427  13.2163 C.ar           1 <1>                0.0331
     19 N           16.9718  22.8741  13.0348 N.ar           1 <1>               -0.2202
     20 C           17.2628  23.3114  11.7962 C.ar           1 <1>                0.2361
     21 N           17.5577  22.5003  10.7541 N.ar           1 <1>               -0.2166
     22 N           17.2298  24.7071  11.5552 N.pl3          1 <1>               -0.2745
     23 C           17.0122  25.7092  12.4720 C.ar           1 <1>                0.0321
     24 C           17.0309  26.8795  11.7516 C.ar           1 <1>                0.0458
     25 N           17.2726  26.6316  10.4250 N.ar           1 <1>               -0.2436
     26 C           17.3889  25.3246  10.3387 C.ar           1 <1>                0.1026
     27 H           21.9136  13.9821   7.4015 H              1 <1>                0.0619
     28 H           21.6313  16.3664   7.9659 H              1 <1>                0.0620
     29 H           23.6954  17.4330   4.3122 H              1 <1>                0.0649
     30 H           23.0807  13.3240   5.3008 H              1 <1>                0.0646
     31 H           22.6297  19.1190   5.6005 H              1 <1>                0.0315
     32 H           23.2358  18.8601   7.2226 H              1 <1>                0.0315
     33 H           20.3277  18.2056   6.5562 H              1 <1>                0.0320
     34 H           20.7876  19.8611   6.9261 H              1 <1>                0.0320
     35 H           21.6452  19.1230   9.1457 H              1 <1>                0.0814
     36 H           21.2281  17.4288   8.7523 H              1 <1>                0.0814
     37 H           19.7207  20.7720   8.8589 H              1 <1>                0.0817
     38 H           19.8352  20.1614  10.5264 H              1 <1>                0.0817
     39 H           17.2971  19.3119   9.9426 H              1 <1>                0.0380
     40 H           17.3279  20.7645   8.9305 H              1 <1>                0.0380
     41 H           17.1465  19.5719  12.3977 H              1 <1>                0.0651
     42 H           16.6908  21.2151  14.2215 H              1 <1>                0.0831
     43 H           16.8563  25.5013  13.5213 H              1 <1>                0.0829
     44 H           16.8814  27.8871  12.1191 H              1 <1>                0.0845
     45 H           17.5781  24.7765   9.4261 H              1 <1>                0.1033
     46 ****        16.7836  23.5090  13.7841 LP             1 <1>                0.0000
     47 ****        17.7842  22.8697   9.8529 LP             1 <1>                0.0000
     48 ****        17.3449  27.2994   9.6842 LP             1 <1>                0.0000
@<TRIPOS>BOND
    1    1    2 ar    
    2    2    3 ar    
    3    3    4 ar    
    4    4    5 ar    
    5    5    6 ar    
    6    1    6 ar    
    7    5    7 1     
    8    3    8 1     
    9    8    9 1     
   10    9   10 1     
   11   10   11 1     
   12   11   12 1     
   13   11   13 1     
   14   11   14 1     
   15   14   15 1     
   16   15   16 1     
   17   16   17 ar    
   18   17   18 ar    
   19   18   19 ar    
   20   19   20 ar    
   21   20   21 ar    
   22   16   21 ar    
   23   20   22 1     
   24   22   23 ar    
   25   23   24 ar    
   26   24   25 ar    
   27   25   26 ar    
   28   22   26 ar    
   29    1   27 1     
   30    2   28 1     
   31    4   29 1     
   32    6   30 1     
   33    8   31 1     
   34    8   32 1     
   35    9   33 1     
   36    9   34 1     
   37   10   35 1     
   38   10   36 1     
   39   14   37 1     
   40   14   38 1     
   41   15   39 1     
   42   15   40 1     
   43   17   41 1     
   44   18   42 1     
   45   23   43 1     
   46   24   44 1     
   47   26   45 1     
   48   19   46 1     
   49   21   47 1     
   50   25   48 1     
@<TRIPOS>SUBSTRUCTURE
      1 ****           1
@<TRIPOS>SET
LONE_PAIRS      STATIC     ATOMS    <user>   **** ""
3 46 47 48
DONOR_HYDROGENS      STATIC     ATOMS    <user>   **** ""
2 12 13
ATOM$BLUE        STATIC     ATOMS    COLORGROUP SYSTEM
3 46 47 48
ATOM$RED        STATIC     ATOMS    COLORGROUP SYSTEM
2 12 13
@<TRIPOS>COMMENT
> <Gold.Version>
5.5

> <Gold.Id.Protein>
unknown|5ht1a_4ib4_3pbl_243|pdb

> <Gold.Protein.RotatedTorsions>
[ 2447 2440 2438 2435 ] final   54.83 input -179.99 | X-H torsion
[ 3947 3938 3937 3935 ] final   -0.05 input -179.96 | X-H torsion
[ 2556 2547 2546 2544 ] final  159.46 input  179.99 | X-H torsion

> <Gold.Protein.ActiveResidues>
 ALA93   TYR96   PHE112  ILE113  ASP116  VAL117  CYS120  THR121  ILE124  ILE167 
 CYS187  THR188  ILE189  TYR195  SER199  ALA203  TRP358  PHE361  PHE362  ASN386 
 TRP387  TYR390 

> <Gold.Protein.RotatedAtoms>
   19.2447   19.3751   14.2297 H   0  0  0  0  0  0  0  0  0  0  0  0  # atno 2447 bound_to 2440
   21.2552   10.5834    9.2477 H   0  0  0  0  0  0  0  0  0  0  0  0  # atno 2556 bound_to 2547
   17.4822   20.4189    6.2307 H   0  0  0  0  0  0  0  0  0  0  0  0  # atno 3947 bound_to 3938
   20.1426   18.4994   15.2247 LP  0  0  0  0  0  0  0  0  0  0  0  0  # atno 4375 bound_to 2440
   20.0176   20.1158   15.4201 LP  0  0  0  0  0  0  0  0  0  0  0  0  # atno 4376 bound_to 2440
   17.0015   21.7422    6.9908 LP  0  0  0  0  0  0  0  0  0  0  0  0  # atno 4377 bound_to 3938
   18.5442   21.2222    7.1176 LP  0  0  0  0  0  0  0  0  0  0  0  0  # atno 4378 bound_to 3938
   21.0237    8.9999    9.2728 LP  0  0  0  0  0  0  0  0  0  0  0  0  # atno 4389 bound_to 2547
   22.4051    9.6304    8.6721 LP  0  0  0  0  0  0  0  0  0  0  0  0  # atno 4390 bound_to 2547

> <Gold.Score>
     Score     S(PLP)   S(hbond)     S(cho)   S(metal)  DE(clash)   DE(tors)    DE(con)     intcor
     80.54     -71.12       2.86       1.00       0.00       0.00       1.16      -0.00       0.15

> <Gold.PLP.Fitness>
80.5353

> <Gold.PLP.PLP>
-71.1161

> <Gold.PLP.part.hbond>
-2.0000

> <Gold.PLP.part.metal>
0.0000

> <Gold.PLP.part.buried>
-5.5497

> <Gold.PLP.part.nonpolar>
-63.6295

> <Gold.PLP.part.repulsive>
0.1425

> <Gold.PLP.ligand.clash>
0.0000

> <Gold.PLP.ligand.torsion>
1.1590

> <Gold.PLP.Chemscore.Hbond>
2.8640

> <Gold.PLP.Chemscore.CHOScore>
1.0000

> <Gold.PLP.Chemscore.Metal>
0.0000

> <Gold.Chemscore.Hbonds>
donor molecule, donor type, donor heavy atom, donor atom, acceptor molecule, acceptor atom, score
      L1  H    11    12       P1  1303  2.00
      P1  H  3887  3897       L1    25  0.86
      L1  C    18    42       P1  2427  1.00

> <Gold.PLP.Chemscore.Internal.Correction>
0.1451

> <Gold.PLP.Constraint>
-0.0000

