#       Name:                C:\Users\porto\OneDrive\projekt\beta2\ligandy\L_3nya.pdb L_3nya.pdb 1
#       Creating user name   student
#       Creation time:       Mon Apr 08 15:53:39 2019


#       File generated by GOLD software.
#

@<TRIPOS>MOLECULE
C:\Users\porto\OneDrive\projekt\beta2\ligandy\L_3nya.pdb L_3nya.pdb 1|3nya|mol2|1|dock6
    46    46     1
SMALL
GASTEIGER


@<TRIPOS>ATOM
      1 C1         -33.8872   6.7125   6.8703 C.3            1 <1>               -0.0499
      2 N1         -32.1946   7.9746   8.1645 N.3            1 <1>               -0.3112
      3 O1         -33.4892  10.9230   8.2595 O.3            1 <1>               -0.3872
      4 C2         -32.4737   6.7084   7.4548 C.3            1 <1>                0.0021
      5 O2         -30.1073  10.8074   6.8811 O.3            1 <1>               -0.4891
      6 C3         -32.2849   5.5480   8.4260 C.3            1 <1>               -0.0499
      7 C4         -32.2407   9.1138   7.2381 C.3            1 <1>                0.0254
      8 C5         -32.1730  10.4145   8.0203 C.3            1 <1>                0.1015
      9 C6         -31.3640  11.4011   7.2011 C.3            1 <1>                0.1166
     10 C7         -29.0421  11.5490   6.4331 C.ar           1 <1>                0.1241
     11 C8         -29.2083  12.8948   6.1123 C.ar           1 <1>               -0.0197
     12 C9         -28.1315  13.6440   5.6573 C.ar           1 <1>               -0.0583
     13 C10        -26.8807  13.0569   5.5230 C.ar           1 <1>               -0.0613
     14 C11        -26.7068  11.7216   5.8441 C.ar           1 <1>               -0.0548
     15 C12        -27.7845  10.9651   6.3004 C.ar           1 <1>               -0.0020
     16 C13        -27.5629   9.5116   6.6461 C.3            1 <1>               -0.0063
     17 C14        -26.1055   9.1812   6.4543 C.2            1 <1>               -0.0867
     18 C15        -25.6619   7.9600   6.6785 C.2            1 <1>               -0.1023
     19 H11        -34.0694   5.7706   6.3523 H              1 <1>                0.0245
     20 H12        -34.6129   6.8318   7.6745 H              1 <1>                0.0245
     21 H13        -33.9877   7.5386   6.1658 H              1 <1>                0.0245
     22 HN1        -32.8860   8.1155   8.8873 H              1 <1>                0.1223
     23 HO1        -33.8745  11.2168   7.4308 H              1 <1>                0.2100
     24 H2         -31.7584   6.6006   6.6390 H              1 <1>                0.0455
     25 H31        -31.2717   5.5692   8.8261 H              1 <1>                0.0245
     26 H32        -33.0000   5.6384   9.2442 H              1 <1>                0.0245
     27 H33        -32.4487   4.6058   7.9032 H              1 <1>                0.0245
     28 H41        -33.1694   9.0810   6.6678 H              1 <1>                0.0450
     29 H42        -31.3951   9.0584   6.5519 H              1 <1>                0.0450
     30 H5         -31.6731  10.2393   8.9731 H              1 <1>                0.0640
     31 H61        -31.9001  11.6345   6.2807 H              1 <1>                0.0723
     32 H62        -31.1993  12.3078   7.7829 H              1 <1>                0.0723
     33 H8         -30.1777  13.3596   6.2177 H              1 <1>                0.0654
     34 H9         -28.2657  14.6858   5.4071 H              1 <1>                0.0619
     35 H10        -26.0453  13.6413   5.1685 H              1 <1>                0.0618
     36 H11        -25.7340  11.2636   5.7414 H              1 <1>                0.0622
     37 H131       -28.1668   8.8854   5.9884 H              1 <1>                0.0357
     38 H132       -27.8406   9.3395   7.6855 H              1 <1>                0.0357
     39 H14        -25.4225   9.9527   6.1304 H              1 <1>                0.0570
     40 H151       -24.6153   7.7317   6.5385 H              1 <1>                0.0532
     41 H152       -26.3449   7.1884   7.0024 H              1 <1>                0.0532
     42 ****       -31.2798   7.9156   8.5640 LP             1 <1>                0.0000
     43 ****       -33.4385  11.6934   8.8950 LP             1 <1>                0.0000
     44 ****       -34.0584  10.2020   8.6546 LP             1 <1>                0.0000
     45 ****       -30.2922  10.1274   6.1717 LP             1 <1>                0.0000
     46 ****       -29.7966  10.3462   7.7122 LP             1 <1>                0.0000
@<TRIPOS>BOND
    1    1    4 1     
    2    1   19 1     
    3    1   20 1     
    4    1   21 1     
    5    2    4 1     
    6    2    7 1     
    7    2   22 1     
    8    3    8 1     
    9    3   23 1     
   10    4    6 1     
   11    4   24 1     
   12    5    9 1     
   13    5   10 1     
   14    6   25 1     
   15    6   26 1     
   16    6   27 1     
   17    7    8 1     
   18    7   28 1     
   19    7   29 1     
   20    8    9 1     
   21    8   30 1     
   22    9   31 1     
   23    9   32 1     
   24   10   11 ar    
   25   10   15 ar    
   26   11   12 ar    
   27   11   33 1     
   28   12   13 ar    
   29   12   34 1     
   30   13   14 ar    
   31   13   35 1     
   32   14   15 ar    
   33   14   36 1     
   34   15   16 1     
   35   16   17 1     
   36   16   37 1     
   37   16   38 1     
   38   17   18 2     
   39   17   39 1     
   40   18   40 1     
   41   18   41 1     
   42    2   42 1     
   43    3   43 1     
   44    3   44 1     
   45    5   45 1     
   46    5   46 1     
@<TRIPOS>SUBSTRUCTURE
      1 ****           1
@<TRIPOS>SET
LONE_PAIRS      STATIC     ATOMS    <user>   **** ""
5 42 43 44 45 46
DONOR_HYDROGENS      STATIC     ATOMS    <user>   **** ""
2 22 23
ATOM$BLUE        STATIC     ATOMS    COLORGROUP SYSTEM
5 42 43 44 45 46
ATOM$RED        STATIC     ATOMS    COLORGROUP SYSTEM
2 22 23
@<TRIPOS>COMMENT
> <Gold.Version>
5.5

> <Gold.Id.Protein>
unknown|dok_beta2|pdb

> <Gold.Protein.RotatedTorsions>
[ 4175 4166 4165 4163 ] final -169.98 input -179.98 | X-H torsion
[ 1294 1290 1288 1285 ] final  138.74 input -179.99 | X-H torsion
[ 4033 4024 4023 4021 ] final -124.59 input  179.98 | X-H torsion
[ 1412 1408 1406 1403 ] final  109.80 input -179.99 | X-H torsion
[ 2830 2825 2824 2821 ] final  -84.70 input -179.98 | X-H torsion
[ 2723 2714 2713 2711 ] final  -72.54 input -179.98 | X-H torsion
[ 2773 2768 2767 2764 ] final   59.39 input  180.00 | X-H torsion

> <Gold.Protein.ActiveResidues>
 TRP109  THR110  ASP113  VAL114  VAL117  THR118  PHE193  TYR199  SER203  SER207 
 PHE208  TRP286  PHE289  PHE290  ASN293  TYR308  ASN312  TYR316 

> <Gold.Protein.RotatedAtoms>
  -34.3949    3.6130    1.1636 H   0  0  0  0  0  0  0  0  0  0  0  0  # atno 1294 bound_to 1290
  -28.1489   14.5519    2.0525 H   0  0  0  0  0  0  0  0  0  0  0  0  # atno 1412 bound_to 1408
  -25.9837    8.4282    2.2022 H   0  0  0  0  0  0  0  0  0  0  0  0  # atno 2723 bound_to 2714
  -23.7518   10.5143    2.3244 H   0  0  0  0  0  0  0  0  0  0  0  0  # atno 2773 bound_to 2768
  -24.6538   14.0126    2.0407 H   0  0  0  0  0  0  0  0  0  0  0  0  # atno 2830 bound_to 2825
  -27.7750    5.9114   11.3913 H   0  0  0  0  0  0  0  0  0  0  0  0  # atno 4033 bound_to 4024
  -36.1914    9.2607    7.5283 H   0  0  0  0  0  0  0  0  0  0  0  0  # atno 4175 bound_to 4166
  -37.7145    8.8234    7.3050 LP  0  0  0  0  0  0  0  0  0  0  0  0  # atno 4597 bound_to 4166
  -36.8760    8.2904    8.6010 LP  0  0  0  0  0  0  0  0  0  0  0  0  # atno 4598 bound_to 4166
  -35.4579    4.6527    1.7555 LP  0  0  0  0  0  0  0  0  0  0  0  0  # atno 4603 bound_to 1290
  -34.1375    4.2293    2.6180 LP  0  0  0  0  0  0  0  0  0  0  0  0  # atno 4604 bound_to 1290
  -28.8551    7.0857   11.2621 LP  0  0  0  0  0  0  0  0  0  0  0  0  # atno 4607 bound_to 4024
  -29.1219    5.6292   10.5737 LP  0  0  0  0  0  0  0  0  0  0  0  0  # atno 4608 bound_to 4024
  -27.5942   15.1496    3.4295 LP  0  0  0  0  0  0  0  0  0  0  0  0  # atno 4611 bound_to 1408
  -26.5877   14.8830    2.1716 LP  0  0  0  0  0  0  0  0  0  0  0  0  # atno 4612 bound_to 1408
  -24.6351   12.7395    3.0098 LP  0  0  0  0  0  0  0  0  0  0  0  0  # atno 4613 bound_to 2825
  -23.2523   13.5251    2.6395 LP  0  0  0  0  0  0  0  0  0  0  0  0  # atno 4614 bound_to 2825

> <Gold.Score>
     Score         DG    S(hbond)    S(metal)    S(lipo)     H(rot)  DE(clash)    DE(int)     intcor
     36.30     -36.93       2.98        0.00     232.53       2.22       0.04       0.59       0.07

> <Gold.Chemscore.Fitness>
36.2989

> <Gold.Chemscore.DG>
-36.9305

> <Gold.Chemscore.ZeroCoef>
-5.4800

> <Gold.Chemscore.Hbond>
2.9760

> <Gold.Chemscore.Metal>
0.0000

> <Gold.Chemscore.Lipo>
232.5266

> <Gold.Chemscore.Internal_Hbond>
0.0000

> <Gold.Chemscore.DEClash>
0.0394

> <Gold.Chemscore.DEInternal>
0.5922

> <Gold.Chemscore.Rot>
2.2246

> <Gold.Chemscore.Internal.Correction>
0.0705

> <Gold.Chemscore.Hbonds>
donor molecule, donor type, donor heavy atom, donor atom, acceptor molecule, acceptor atom, score
      L1  H     2    22       P1  4098  1.00
      L1  H     3    23       P1  1334  1.00
      P1  H  4097  4104       L1     3  0.98

> <Gold.Chemscore.Hbond.Weighted>
-9.9397

> <Gold.Chemscore.Metal.Weighted>
-0.0000

> <Gold.Chemscore.Lipo.Weighted>
-27.2056

> <Gold.Chemscore.Internal_Hbond.Weighted>
0.0000

> <Gold.Chemscore.DEClash.Weighted>
0.0394

> <Gold.Chemscore.DEInternal.Weighted>
0.5922

> <Gold.Chemscore.Rot.Weighted>
5.6949

> <Gold.Chemscore.Internal.Correction.Weighted>
0.0705

