#       Name:                C:\Users\porto\OneDrive\projekt\beta1\ligandy\L_6ibl.pdb L_6ibl.pdb 1
#       Creating user name   student
#       Creation time:       Mon Apr 08 15:02:18 2019


#       File generated by GOLD software.
#

@<TRIPOS>MOLECULE
C:\Users\porto\OneDrive\projekt\beta1\ligandy\L_6ibl.pdb L_6ibl.pdb 1|6ibl|mol2|1|dock5
    58    59     1
SMALL
GASTEIGER


@<TRIPOS>ATOM
      1 C1         -21.2977   7.7184  15.9965 C.3            1 <1>               -0.0494
      2 N1         -22.9723   9.1975  17.1238 N.3            1 <1>               -0.3104
      3 O1         -23.0010   2.3287  13.2105 O.3            1 <1>               -0.4951
      4 C2         -22.7129   7.8377  16.5937 C.3            1 <1>                0.0089
      5 N2         -24.4594  11.6453  23.3638 N.am           1 <1>               -0.2852
      6 O2         -25.0996  13.7207  21.8156 O.3            1 <1>               -0.5049
      7 C3         -23.8096   7.4406  15.5814 C.3            1 <1>               -0.0125
      8 O3         -23.2748   9.9448  24.2735 O.2            1 <1>               -0.2792
      9 C4         -23.6000   6.0771  14.9567 C.ar           1 <1>               -0.0457
     10 O4         -22.8476   8.1573  19.5860 O.3            1 <1>               -0.3859
     11 C5         -23.5607   4.9292  15.7440 C.ar           1 <1>               -0.0551
     12 C6         -23.3715   3.6726  15.1895 C.ar           1 <1>               -0.0197
     13 C7         -23.2117   3.5474  13.8102 C.ar           1 <1>                0.1201
     14 C8         -23.2605   4.6850  13.0049 C.ar           1 <1>               -0.0197
     15 C9         -23.4474   5.9348  13.5820 C.ar           1 <1>               -0.0551
     16 C10        -22.9585   2.2318  11.7833 C.3            1 <1>                0.0788
     17 C11        -21.9313   9.7161  18.0178 C.3            1 <1>                0.0264
     18 C12        -22.1985   9.4190  19.4920 C.3            1 <1>                0.0927
     19 C13        -22.9652  10.5886  20.1014 C.ar           1 <1>               -0.0160
     20 C14        -23.3453  10.5536  21.4423 C.ar           1 <1>               -0.0312
     21 C15        -24.0533  11.6105  22.0110 C.ar           1 <1>                0.0755
     22 C16        -24.4070  12.7165  21.2304 C.ar           1 <1>                0.1380
     23 C17        -24.0192  12.7541  19.8924 C.ar           1 <1>               -0.0180
     24 C18        -23.3093  11.7037  19.3459 C.ar           1 <1>               -0.0525
     25 C19        -24.0766  10.8611  24.3700 C.2            1 <1>                0.2042
     26 H11        -21.1461   6.7077  15.6189 H              1 <1>                0.0245
     27 H12        -21.1858   8.4318  15.1796 H              1 <1>                0.0245
     28 H13        -20.5576   7.9321  16.7681 H              1 <1>                0.0245
     29 HN1        -23.8516   9.1548  17.6187 H              1 <1>                0.1223
     30 H2         -22.7740   7.1430  17.4318 H              1 <1>                0.0461
     31 HN2        -25.1293  12.3838  23.5252 H              1 <1>                0.1546
     32 HO2        -24.4892  14.3148  22.2588 H              1 <1>                0.2922
     33 H31        -23.8659   8.1935  14.7949 H              1 <1>                0.0328
     34 H32        -24.7821   7.4672  16.0732 H              1 <1>                0.0328
     35 HO4        -23.7893   8.2696  19.4357 H              1 <1>                0.2103
     36 H5         -23.6791   5.0043  16.8146 H              1 <1>                0.0621
     37 H6         -23.3483   2.7999  15.8251 H              1 <1>                0.0654
     38 H8         -23.1529   4.5936  11.9341 H              1 <1>                0.0654
     39 H9         -23.4735   6.8054  12.9431 H              1 <1>                0.0621
     40 H101       -22.7837   1.1958  11.4938 H              1 <1>                0.0660
     41 H102       -23.9078   2.5697  11.3673 H              1 <1>                0.0660
     42 H103       -22.1520   2.8570  11.3998 H              1 <1>                0.0660
     43 H111       -21.8367  10.7927  17.8769 H              1 <1>                0.0453
     44 H112       -20.9668   9.2952  17.7326 H              1 <1>                0.0453
     45 H12        -21.2372   9.3429  20.0010 H              1 <1>                0.0656
     46 H14        -23.0914   9.7002  22.0540 H              1 <1>                0.0641
     47 H17        -24.2734  13.6063  19.2801 H              1 <1>                0.0655
     48 H18        -23.0209  11.7623  18.3068 H              1 <1>                0.0622
     49 H19        -24.4825  11.0155  25.3589 H              1 <1>                0.1255
     50 ****       -22.9868   9.8302  16.3495 LP             1 <1>                0.0000
     51 ****       -22.1240   1.9879  13.5493 LP             1 <1>                0.0000
     52 ****       -23.7352   1.7241  13.5193 LP             1 <1>                0.0000
     53 ****       -25.7384  13.3396  22.4840 LP             1 <1>                0.0000
     54 ****       -25.6086  14.2252  21.1181 LP             1 <1>                0.0000
     55 ****       -22.8546   9.7391  23.3898 LP             1 <1>                0.0000
     56 ****       -23.0386   9.4004  25.0784 LP             1 <1>                0.0000
     57 ****       -22.6991   7.7731  20.4973 LP             1 <1>                0.0000
     58 ****       -22.4718   7.5370  18.8975 LP             1 <1>                0.0000
@<TRIPOS>BOND
    1    1    4 1     
    2    1   26 1     
    3    1   27 1     
    4    1   28 1     
    5    2   17 1     
    6    2    4 1     
    7    2   29 1     
    8    3   16 1     
    9    3   13 1     
   10    4    7 1     
   11    4   30 1     
   12    5   25 am    
   13    5   21 1     
   14    5   31 1     
   15    6   22 1     
   16    6   32 1     
   17    7    9 1     
   18    7   33 1     
   19    7   34 1     
   20    8   25 2     
   21    9   11 ar    
   22    9   15 ar    
   23   10   18 1     
   24   10   35 1     
   25   11   12 ar    
   26   11   36 1     
   27   12   13 ar    
   28   12   37 1     
   29   13   14 ar    
   30   14   15 ar    
   31   14   38 1     
   32   15   39 1     
   33   16   40 1     
   34   16   41 1     
   35   16   42 1     
   36   17   18 1     
   37   17   43 1     
   38   17   44 1     
   39   18   19 1     
   40   18   45 1     
   41   19   20 ar    
   42   19   24 ar    
   43   20   21 ar    
   44   20   46 1     
   45   21   22 ar    
   46   22   23 ar    
   47   23   24 ar    
   48   23   47 1     
   49   24   48 1     
   50   25   49 1     
   51    2   50 1     
   52    3   51 1     
   53    3   52 1     
   54    6   53 1     
   55    6   54 1     
   56    8   55 1     
   57    8   56 1     
   58   10   57 1     
   59   10   58 1     
@<TRIPOS>SUBSTRUCTURE
      1 ****           1
@<TRIPOS>SET
LONE_PAIRS      STATIC     ATOMS    <user>   **** ""
9 50 51 52 53 54 55 56 57 58
DONOR_HYDROGENS      STATIC     ATOMS    <user>   **** ""
4 29 31 32 35
ATOM$BLUE        STATIC     ATOMS    COLORGROUP SYSTEM
9 50 51 52 53 54 55 56 57 58
ATOM$RED        STATIC     ATOMS    COLORGROUP SYSTEM
4 29 31 32 35
@<TRIPOS>COMMENT
> <Gold.Version>
5.5

> <Gold.Id.Protein>
unknown|bialko_beta1|pdb

> <Gold.Protein.ActiveResidues>
 ALA86   ASP87   VAL90   VAL94   VAL95   GLY98   ALA99   LEU101  VAL102  CYS114 
 GLU115  TRP117  THR118  SER119  LEU120  ASP121  VAL122  CYS124  VAL125  THR126 
 SER128  SER173  PHE174  ILE177  CYS199  ASP200  PHE201  TYR207  SER215  PHE299 
 TRP303  PHE306  PHE307  ASN310  PHE325  VAL326  ASN329  TRP330  GLY332  TYR333 
 SER336 

> <Gold.Score>
     Score     S(PLP)   S(hbond)     S(cho)   S(metal)  DE(clash)   DE(tors)     intcor
     73.75     -73.05       1.00       0.00       0.00       0.00       1.57       0.85

> <Gold.PLP.Fitness>
73.7483

> <Gold.PLP.PLP>
-73.0468

> <Gold.PLP.part.hbond>
-3.0000

> <Gold.PLP.part.metal>
0.0000

> <Gold.PLP.part.buried>
-8.9229

> <Gold.PLP.part.nonpolar>
-61.3336

> <Gold.PLP.part.repulsive>
0.3807

> <Gold.PLP.ligand.clash>
0.0000

> <Gold.PLP.ligand.torsion>
1.5734

> <Gold.PLP.Chemscore.Hbond>
1.0000

> <Gold.PLP.Chemscore.CHOScore>
0.0000

> <Gold.PLP.Chemscore.Metal>
0.0000

> <Gold.Chemscore.Hbonds>
donor molecule, donor type, donor heavy atom, donor atom, acceptor molecule, acceptor atom, score
      L1  H    10    35       P1  2066  1.00

> <Gold.PLP.Chemscore.Internal.Correction>
0.8483

