#       Name:                plp ligand
#       Creating user name   student
#       Creation time:       Mon Apr 08 15:01:49 2019


#       File generated by GOLD software.
#

@<TRIPOS>MOLECULE
plp ligand
    58    59     1
SMALL
GASTEIGER


@<TRIPOS>ATOM
      1 C1          -1.2237  -2.4449 -12.6216 NONPOLAR       1 <1>               -0.0494
      2 N1           0.9690  -1.6593 -11.7064 DONACC         1 <1>               -0.3104
      3 O1          -3.3519   3.9124 -14.7927 ACCEPTOR       1 <1>               -0.4951
      4 C2          -0.2769  -1.2503 -12.3976 NONPOLAR       1 <1>                0.0089
      5 N2          -0.4962  -2.2678  -5.1348 DONOR          1 <1>               -0.2852
      6 O2           0.9023  -4.4198  -4.4089 DONACC         1 <1>               -0.5049
      7 C3           0.0588  -0.5159 -13.7142 NONPOLAR       1 <1>               -0.0125
      8 O3          -1.1052  -0.3098  -6.0928 ACCEPTOR       1 <1>               -0.2792
      9 C4          -0.8415   0.6676 -14.0006 NONPOLAR       1 <1>               -0.0457
     10 O4           3.1247  -2.5994 -10.1642 DONACC         1 <1>               -0.3859
     11 C5          -0.6134   1.9012 -13.3963 NONPOLAR       1 <1>               -0.0551
     12 C6          -1.4260   2.9961 -13.6478 NONPOLAR       1 <1>               -0.0197
     13 C7          -2.5030   2.8656 -14.5234 NONPOLAR       1 <1>                0.1201
     14 C8          -2.7393   1.6407 -15.1471 NONPOLAR       1 <1>               -0.0197
     15 C9          -1.9147   0.5556 -14.8777 NONPOLAR       1 <1>               -0.0551
     16 C10         -3.8371   4.7326 -13.7249 NONPOLAR       1 <1>                0.0788
     17 C11          0.7720  -2.2046 -10.3589 NONPOLAR       1 <1>                0.0264
     18 C12          2.0044  -2.0696  -9.4668 NONPOLAR       1 <1>                0.0927
     19 C13          1.7132  -2.7219  -8.1188 NONPOLAR       1 <1>               -0.0160
     20 C14          0.7471  -2.1790  -7.2728 NONPOLAR       1 <1>               -0.0312
     21 C15          0.4758  -2.7585  -6.0350 NONPOLAR       1 <1>                0.0755
     22 C16          1.1890  -3.8885  -5.6197 NONPOLAR       1 <1>                0.1380
     23 C17          2.1485  -4.4351  -6.4697 NONPOLAR       1 <1>               -0.0180
     24 C18          2.3989  -3.8554  -7.6975 NONPOLAR       1 <1>               -0.0525
     25 C19         -1.1982  -1.1378  -5.1998 NONPOLAR       1 <1>                0.2042
     26 H11         -2.1250  -2.1045 -13.1305 0ÿ£i_          1 <1>                0.0245
     27 H12         -0.7234  -3.1965 -13.2330 0ÿ£i_          1 <1>                0.0245
     28 H13         -1.4933  -2.8814 -11.6595 0ÿ£i_          1 <1>                0.0245
     29 HN1          1.5571  -0.8397 -11.6562 0ÿ£i_          1 <1>                0.1223
     30 H2          -0.7927  -0.5412 -11.7497 0ÿ£i_          1 <1>                0.0461
     31 HN2         -0.6312  -2.9027  -4.3610 0ÿ£i_          1 <1>                0.1546
     32 HO2          1.4625  -5.1841  -4.2539 0ÿ£i_          1 <1>                0.2922
     33 H31          0.0053  -1.2199 -14.5450 0ÿ£i_          1 <1>                0.0328
     34 H32          1.0963  -0.1827 -13.6877 0ÿ£i_          1 <1>                0.0328
     35 HO4          3.9091  -2.5222  -9.6158 0ÿ£i_          1 <1>                0.2103
     36 H5           0.2133   2.0230 -12.7126 0ÿ£i_          1 <1>                0.0621
     37 H6          -1.2227   3.9413 -13.1666 0ÿ£i_          1 <1>                0.0654
     38 H8          -3.5626   1.5366 -15.8384 0ÿ£i_          1 <1>                0.0654
     39 H9          -2.1186  -0.3875 -15.3634 0ÿ£i_          1 <1>                0.0621
     40 H101        -4.4923   5.5047 -14.1277 0ÿ£i_          1 <1>                0.0660
     41 H102        -4.3933   4.1173 -13.0175 0ÿ£i_          1 <1>                0.0660
     42 H103        -2.9955   5.2007 -13.2141 0ÿ£i_          1 <1>                0.0660
     43 H111         0.4908  -3.2551 -10.4312 0ÿ£i_          1 <1>                0.0453
     44 H112        -0.0736  -1.7044  -9.8863 0ÿ£i_          1 <1>                0.0453
     45 H12          2.1839  -1.0076  -9.2968 0ÿ£i_          1 <1>                0.0656
     46 H14          0.1981  -1.2988  -7.5739 0ÿ£i_          1 <1>                0.0641
     47 H17          2.6983  -5.3143  -6.1692 0ÿ£i_          1 <1>                0.0655
     48 H18          3.1467  -4.3028  -8.3353 0ÿ£i_          1 <1>                0.0622
     49 H19         -1.9122  -0.9008  -4.4248 0ÿ£i_          1 <1>                0.1255
     50 ****         1.3785  -2.4062 -12.2303 0ÿ£i_          1 <1>                0.0000
     51 ****        -2.8713   4.5183 -15.4267 0ÿ£i_          1 <1>                0.0000
     52 ****        -4.1543   3.5243 -15.2462 0ÿ£i_          1 <1>                0.0000
     53 ****        -0.0574  -4.6999  -4.3866 0ÿ£i_          1 <1>                0.0000
     54 ****         1.0666  -3.7363  -3.6977 0ÿ£i_          1 <1>                0.0000
     55 ****        -0.4655  -0.4575  -6.8470 0ÿ£i_          1 <1>                0.0000
     56 ****        -1.6689   0.5159  -6.0698 0ÿ£i_          1 <1>                0.0000
     57 ****         3.2603  -2.0892 -11.0136 0ÿ£i_          1 <1>                0.0000
     58 ****         2.9600  -3.5626 -10.3767 0ÿ£i_          1 <1>                0.0000
@<TRIPOS>BOND
    1    1    4 1     
    2    1   26 1     
    3    1   27 1     
    4    1   28 1     
    5    2   17 1     
    6    2    4 1     
    7    2   29 1     
    8    3   16 1     
    9    3   13 1     
   10    4    7 1     
   11    4   30 1     
   12    5   25 am    
   13    5   21 1     
   14    5   31 1     
   15    6   22 1     
   16    6   32 1     
   17    7    9 1     
   18    7   33 1     
   19    7   34 1     
   20    8   25 2     
   21    9   11 ar    
   22    9   15 ar    
   23   10   18 1     
   24   10   35 1     
   25   11   12 ar    
   26   11   36 1     
   27   12   13 ar    
   28   12   37 1     
   29   13   14 ar    
   30   14   15 ar    
   31   14   38 1     
   32   15   39 1     
   33   16   40 1     
   34   16   41 1     
   35   16   42 1     
   36   17   18 1     
   37   17   43 1     
   38   17   44 1     
   39   18   19 1     
   40   18   45 1     
   41   19   20 ar    
   42   19   24 ar    
   43   20   21 ar    
   44   20   46 1     
   45   21   22 ar    
   46   22   23 ar    
   47   23   24 ar    
   48   23   47 1     
   49   24   48 1     
   50   25   49 1     
   51    2   50 1     
   52    3   51 1     
   53    3   52 1     
   54    6   53 1     
   55    6   54 1     
   56    8   55 1     
   57    8   56 1     
   58   10   57 1     
   59   10   58 1     
@<TRIPOS>SUBSTRUCTURE
      1 ****           1
@<TRIPOS>SET
LONE_PAIRS      STATIC     ATOMS    <user>   **** ""
9 50 51 52 53 54 55 56 57 58
DONOR_HYDROGENS      STATIC     ATOMS    <user>   **** ""
4 29 31 32 35
ATOM$BLUE        STATIC     ATOMS    COLORGROUP SYSTEM
9 50 51 52 53 54 55 56 57 58
ATOM$RED        STATIC     ATOMS    COLORGROUP SYSTEM
4 29 31 32 35
