#       Name:                C:\Users\porto\OneDrive\projekt\beta1\ligandy\L_6h7j.pdb L_6h7j.pdb 1
#       Creating user name   student
#       Creation time:       Mon Apr 08 16:28:36 2019


#       File generated by GOLD software.
#

@<TRIPOS>MOLECULE
C:\Users\porto\OneDrive\projekt\beta1\ligandy\L_6h7j.pdb L_6h7j.pdb 1|6h7j|mol2|1|dock14
    39    39     1
SMALL
GASTEIGER


@<TRIPOS>ATOM
      1 CAE        -23.7210   6.7538  16.5982 C.3            1 <1>                0.0927
      2 CAF        -22.6367   7.8297  16.4605 C.3            1 <1>                0.0263
      3 CAG        -21.5513   9.6806  17.6624 C.3            1 <1>                0.0021
      4 CAH        -23.5850   5.7207  15.4715 C.ar           1 <1>               -0.0143
      5 CAI        -21.8427  10.8158  18.6544 C.3            1 <1>               -0.0499
      6 CAJ        -20.3016   8.8936  18.0918 C.3            1 <1>               -0.0499
      7 CAK        -23.4303   6.1617  14.1557 C.ar           1 <1>               -0.0109
      8 CAL        -23.6195   4.3481  15.7335 C.ar           1 <1>               -0.0524
      9 CAM        -23.2926   5.2487  13.1111 C.ar           1 <1>                0.1586
     10 CAN        -23.4966   3.4304  14.6920 C.ar           1 <1>               -0.0162
     11 CAO        -23.3329   3.8822  13.3847 C.ar           1 <1>                0.1582
     12 NAD        -22.7612   8.8354  17.5396 N.3            1 <1>               -0.3110
     13 OAA        -23.5917   6.1442  17.8791 O.3            1 <1>               -0.3859
     14 OAB        -23.1331   5.6881  11.8327 O.3            1 <1>               -0.5033
     15 OAC        -23.2146   2.9867  12.3805 O.3            1 <1>               -0.5033
     16 HAE        -24.7008   7.2273  16.5284 H              1 <1>                0.0656
     17 HAF1       -22.7342   8.3217  15.4932 H              1 <1>                0.0453
     18 HAF2       -21.6533   7.3623  16.5118 H              1 <1>                0.0453
     19 HAG        -21.3514  10.1267  16.6884 H              1 <1>                0.0455
     20 HAI1       -22.7309  11.3607  18.3338 H              1 <1>                0.0245
     21 HAI2       -22.0129  10.3977  19.6465 H              1 <1>                0.0245
     22 HAI3       -20.9917  11.4958  18.6887 H              1 <1>                0.0245
     23 HAJ1       -19.4512   9.5714  18.1626 H              1 <1>                0.0245
     24 HAJ2       -20.4793   8.4307  19.0623 H              1 <1>                0.0245
     25 HAJ3       -20.0878   8.1199  17.3545 H              1 <1>                0.0245
     26 HAK        -23.4162   7.2191  13.9393 H              1 <1>                0.0659
     27 HAL        -23.7419   3.9940  16.7467 H              1 <1>                0.0622
     28 HAN        -23.5278   2.3708  14.8989 H              1 <1>                0.0655
     29 HNAD       -23.5472   9.4401  17.3472 H              1 <1>                0.1223
     30 HOAA       -24.2656   6.4900  18.4682 H              1 <1>                0.2103
     31 HOAB       -22.3953   5.2284  11.4261 H              1 <1>                0.2923
     32 HOAC       -22.8866   2.1550  12.7297 H              1 <1>                0.2923
     33 ****       -22.8870   8.3339  18.3956 LP             1 <1>                0.0000
     34 ****       -22.6866   6.3452  18.2538 LP             1 <1>                0.0000
     35 ****       -23.7031   5.1545  17.7898 LP             1 <1>                0.0000
     36 ****       -22.9510   6.6714  11.8384 LP             1 <1>                0.0000
     37 ****       -23.9670   5.5067  11.3114 LP             1 <1>                0.0000
     38 ****       -22.5747   3.3362  11.6961 LP             1 <1>                0.0000
     39 ****       -24.1087   2.8408  11.9571 LP             1 <1>                0.0000
@<TRIPOS>BOND
    1    1    4 1     
    2    1   13 1     
    3    1    2 1     
    4    1   16 1     
    5    2   12 1     
    6    2   17 1     
    7    2   18 1     
    8    3    6 1     
    9    3   12 1     
   10    3    5 1     
   11    3   19 1     
   12    4    7 ar    
   13    4    8 ar    
   14    5   20 1     
   15    5   21 1     
   16    5   22 1     
   17    6   23 1     
   18    6   24 1     
   19    6   25 1     
   20    7    9 ar    
   21    7   26 1     
   22    8   10 ar    
   23    8   27 1     
   24    9   14 1     
   25    9   11 ar    
   26   10   11 ar    
   27   10   28 1     
   28   11   15 1     
   29   12   29 1     
   30   13   30 1     
   31   14   31 1     
   32   15   32 1     
   33   12   33 1     
   34   13   34 1     
   35   13   35 1     
   36   14   36 1     
   37   14   37 1     
   38   15   38 1     
   39   15   39 1     
@<TRIPOS>SUBSTRUCTURE
      1 ****           1
@<TRIPOS>SET
LONE_PAIRS      STATIC     ATOMS    <user>   **** ""
7 33 34 35 36 37 38 39
DONOR_HYDROGENS      STATIC     ATOMS    <user>   **** ""
4 29 30 31 32
ATOM$BLUE        STATIC     ATOMS    COLORGROUP SYSTEM
7 33 34 35 36 37 38 39
ATOM$RED        STATIC     ATOMS    COLORGROUP SYSTEM
4 29 30 31 32
@<TRIPOS>COMMENT
> <Gold.Version>
5.5

> <Gold.Id.Protein>
unknown|bialko_beta1|pdb

> <Gold.Protein.ActiveResidues>
 ALA86   ASP87   VAL90   VAL94   VAL95   GLY98   ALA99   LEU101  VAL102  CYS114 
 GLU115  TRP117  THR118  SER119  LEU120  ASP121  VAL122  CYS124  VAL125  THR126 
 SER128  SER173  PHE174  ILE177  CYS199  ASP200  PHE201  TYR207  SER215  PHE299 
 TRP303  PHE306  PHE307  ASN310  PHE325  VAL326  ASN329  TRP330  GLY332  TYR333 
 SER336 

> <Gold.Score>
     Score     S(PLP)   S(hbond)     S(cho)   S(metal)  DE(clash)   DE(tors)     intcor
     52.61     -50.29       1.00       0.00       0.00       0.00       0.35       0.02

> <Gold.PLP.Fitness>
52.6057

> <Gold.PLP.PLP>
-50.2868

> <Gold.PLP.part.hbond>
-3.3535

> <Gold.PLP.part.metal>
0.0000

> <Gold.PLP.part.buried>
-5.4716

> <Gold.PLP.part.nonpolar>
-41.8866

> <Gold.PLP.part.repulsive>
0.0000

> <Gold.PLP.ligand.clash>
0.0000

> <Gold.PLP.ligand.torsion>
0.3499

> <Gold.PLP.Chemscore.Hbond>
1.0000

> <Gold.PLP.Chemscore.CHOScore>
0.0000

> <Gold.PLP.Chemscore.Metal>
0.0000

> <Gold.Chemscore.Hbonds>
donor molecule, donor type, donor heavy atom, donor atom, acceptor molecule, acceptor atom, score
      L1  H    13    30       P1  2066  1.00

> <Gold.PLP.Chemscore.Internal.Correction>
0.0188

