#       Name:                C:\Users\porto\OneDrive\projekt\beta1\ligandy\L_4amj.pdb L_4amj.pdb 1
#       Creating user name   student
#       Creation time:       Wed Apr 10 10:08:35 2019


#       File generated by GOLD software.
#

@<TRIPOS>MOLECULE
C:\Users\porto\OneDrive\projekt\beta1\ligandy\L_4amj.pdb L_4amj.pdb 1
    65    68     1
SMALL
GASTEIGER


@<TRIPOS>ATOM
      1 C1          -0.4847  -2.2590   0.3130 C.3            1 <1>                0.1015
      2 N1          -0.0177  -2.0160  -6.5600 N.pl3          1 <1>               -0.3540
      3 O1          -0.0767  -2.8910   1.5280 O.3            1 <1>               -0.3872
      4 C2          -0.0707  -3.1660  -0.8210 C.3            1 <1>                0.1166
      5 N2           0.5923  -0.4070   1.4780 N.3            1 <1>               -0.3102
      6 O2          -0.3017  -2.4300  -2.0330 O.3            1 <1>               -0.4887
      7 C3           0.0453  -3.0040  -3.2130 C.ar           1 <1>                0.1303
      8 O3           0.1273   1.8800   3.3320 O.3            1 <1>               -0.4870
      9 C4          -0.1547  -2.3400  -4.4050 C.ar           1 <1>                0.0490
     10 O4          -0.6017   4.4140   4.1970 O.3            1 <1>               -0.4915
     11 C5          -0.5497  -1.0420  -4.6730 C.ar           1 <1>                0.0109
     12 C6           0.1933  -2.9330  -5.5850 C.ar           1 <1>                0.0510
     13 C7          -0.5107  -0.8440  -6.0360 C.ar           1 <1>                0.0476
     14 C8          -0.9987  -0.0420  -3.8450 C.ar           1 <1>               -0.0519
     15 C9          -0.8837   0.3790  -6.5670 C.ar           1 <1>               -0.0378
     16 C10         -1.3747   1.4120  -5.7470 C.ar           1 <1>               -0.0598
     17 C11         -1.4217   1.2040  -4.3930 C.ar           1 <1>               -0.0611
     18 C12          0.6723  -4.2120  -5.5880 C.ar           1 <1>               -0.0375
     19 C13          0.8253  -4.8930  -4.4310 C.ar           1 <1>               -0.0563
     20 C14          0.5003  -4.3060  -3.2190 C.ar           1 <1>               -0.0192
     21 C15          0.2753  -0.9450   0.1310 C.3            1 <1>                0.0253
     22 C16          1.0693   1.0160   1.3390 C.3            1 <1>                0.0302
     23 C17          1.3773   1.5220   2.7390 C.3            1 <1>                0.1022
     24 C18          0.0023   2.1510   4.7020 C.ar           1 <1>                0.1619
     25 C19         -0.3587   3.4200   5.1410 C.ar           1 <1>                0.1615
     26 C20         -0.5087   3.6990   6.5100 C.ar           1 <1>               -0.0163
     27 C21         -0.2487   2.7300   7.4540 C.ar           1 <1>               -0.0581
     28 C22          0.1163   1.4590   7.0160 C.ar           1 <1>               -0.0581
     29 C23          0.2233   1.1800   5.6490 C.ar           1 <1>               -0.0163
     30 C24         -0.3877   5.7890   4.5650 C.3            1 <1>                0.0790
     31 H1          -1.5617  -2.0910   0.3040 H              1 <1>                0.0640
     32 HN1          0.1873  -2.2450  -7.5220 H              1 <1>                0.1659
     33 HO1         -0.3247  -2.3410   2.2740 H              1 <1>                0.2100
     34 H21         -0.6937  -4.0600  -0.8160 H              1 <1>                0.0723
     35 H22          0.9913  -3.3950  -0.7330 H              1 <1>                0.0723
     36 HN2          1.3173  -0.9650   1.9050 H              1 <1>                0.1221
     37 H8          -1.0317  -0.1990  -2.7770 H              1 <1>                0.0624
     38 H9          -0.8007   0.5540  -7.6290 H              1 <1>                0.0638
     39 H10         -1.7037   2.3420  -6.1880 H              1 <1>                0.0618
     40 H11         -1.7807   1.9870  -3.7410 H              1 <1>                0.0618
     41 H12          0.9333  -4.6890  -6.5210 H              1 <1>                0.0638
     42 H13          1.2043  -5.9040  -4.4460 H              1 <1>                0.0619
     43 H14          0.5973  -4.8480  -2.2900 H              1 <1>                0.0654
     44 H151        -0.3527  -0.2340  -0.4050 H              1 <1>                0.0450
     45 H152         1.2013  -1.1340  -0.4120 H              1 <1>                0.0450
     46 H161         0.2773   1.6230   0.9000 H              1 <1>                0.0457
     47 H162         1.9783   1.0370   0.7380 H              1 <1>                0.0457
     48 H171         1.8383   0.7230   3.3200 H              1 <1>                0.0709
     49 H172         2.0133   2.4050   2.6740 H              1 <1>                0.0709
     50 H20         -0.8297   4.6790   6.8290 H              1 <1>                0.0655
     51 H21         -0.3297   2.9650   8.5050 H              1 <1>                0.0619
     52 H22          0.3193   0.6780   7.7340 H              1 <1>                0.0619
     53 H23          0.4853   0.1780   5.3440 H              1 <1>                0.0655
     54 H241        -0.6227   6.4330   3.7180 H              1 <1>                0.0660
     55 H242        -1.0327   6.0450   5.4050 H              1 <1>                0.0660
     56 H243         0.6543   5.9310   4.8510 H              1 <1>                0.0660
     57 ****         0.9153  -3.0163   1.5216 LP             1 <1>                0.0000
     58 ****        -0.5247  -3.7816   1.6071 LP             1 <1>                0.0000
     59 ****        -0.2258  -0.4360   2.0524 LP             1 <1>                0.0000
     60 ****         0.2080  -1.5728  -1.9600 LP             1 <1>                0.0000
     61 ****        -1.2811  -2.2327  -2.0769 LP             1 <1>                0.0000
     62 ****        -0.1828   2.7025   2.8551 LP             1 <1>                0.0000
     63 ****        -0.5001   1.1258   3.1381 LP             1 <1>                0.0000
     64 ****        -0.0112   4.2247   3.4126 LP             1 <1>                0.0000
     65 ****        -1.5593   4.3294   3.9214 LP             1 <1>                0.0000
@<TRIPOS>BOND
    1    1    4 1     
    2    1   21 1     
    3    1    3 1     
    4    1   31 1     
    5    2   12 ar    
    6    2   13 ar    
    7    2   32 1     
    8    3   33 1     
    9    4    6 1     
   10    4   34 1     
   11    4   35 1     
   12    5   22 1     
   13    5   21 1     
   14    5   36 1     
   15    6    7 1     
   16    7    9 ar    
   17    7   20 ar    
   18    8   24 1     
   19    8   23 1     
   20    9   11 ar    
   21    9   12 ar    
   22   10   30 1     
   23   10   25 1     
   24   11   13 ar    
   25   11   14 ar    
   26   12   18 ar    
   27   13   15 ar    
   28   14   17 ar    
   29   14   37 1     
   30   15   16 ar    
   31   15   38 1     
   32   16   17 ar    
   33   16   39 1     
   34   17   40 1     
   35   18   19 ar    
   36   18   41 1     
   37   19   20 ar    
   38   19   42 1     
   39   20   43 1     
   40   21   44 1     
   41   21   45 1     
   42   22   23 1     
   43   22   46 1     
   44   22   47 1     
   45   23   48 1     
   46   23   49 1     
   47   24   25 ar    
   48   24   29 ar    
   49   25   26 ar    
   50   26   27 ar    
   51   26   50 1     
   52   27   28 ar    
   53   27   51 1     
   54   28   29 ar    
   55   28   52 1     
   56   29   53 1     
   57   30   54 1     
   58   30   55 1     
   59   30   56 1     
   60    3   57 1     
   61    3   58 1     
   62    5   59 1     
   63    6   60 1     
   64    6   61 1     
   65    8   62 1     
   66    8   63 1     
   67   10   64 1     
   68   10   65 1     
@<TRIPOS>SUBSTRUCTURE
      1 ****           1
@<TRIPOS>SET
LONE_PAIRS      STATIC     ATOMS    <user>   **** ""
9 57 58 59 60 61 62 63 64 65
DONOR_HYDROGENS      STATIC     ATOMS    <user>   **** ""
3 32 33 36
ATOM$BLUE        STATIC     ATOMS    COLORGROUP SYSTEM
9 57 58 59 60 61 62 63 64 65
ATOM$RED        STATIC     ATOMS    COLORGROUP SYSTEM
3 32 33 36
