#       Name:                C:\Users\porto\OneDrive\projekt\beta1\ligandy\L_4amj.pdb L_4amj.pdb 1
#       Creating user name   student
#       Creation time:       Wed Apr 10 10:39:58 2019


#       File generated by GOLD software.
#

@<TRIPOS>MOLECULE
C:\Users\porto\OneDrive\projekt\beta1\ligandy\L_4amj.pdb L_4amj.pdb 1|4amj|mol2|1|dock95
    65    68     1
SMALL
GASTEIGER


@<TRIPOS>ATOM
      1 C1         -23.2608   6.1731  16.2579 C.3            1 <1>                0.1015
      2 N1         -24.6486   5.7232   9.6974 N.pl3          1 <1>               -0.3540
      3 O1         -23.4159   5.5440  17.5315 O.3            1 <1>               -0.3872
      4 C2         -23.1222   5.0735  15.2324 C.3            1 <1>                0.1166
      5 N2         -22.1603   8.2079  17.0297 N.3            1 <1>               -0.3102
      6 O2         -23.0275   5.7218  13.9539 O.3            1 <1>               -0.4887
      7 C3         -23.3155   5.0001  12.8411 C.ar           1 <1>                0.1303
      8 O3         -22.1397  10.9039  17.6043 O.3            1 <1>               -0.4870
      9 C4         -23.8986   5.5992  11.7443 C.ar           1 <1>                0.0490
     10 O4         -24.5547  12.0438  16.8500 O.3            1 <1>               -0.4915
     11 C5         -24.1586   6.9272  11.4588 C.ar           1 <1>                0.0109
     12 C6         -24.1888   4.8587  10.6341 C.ar           1 <1>                0.0510
     13 C7         -24.6764   7.0089  10.1846 C.ar           1 <1>                0.0476
     14 C8         -24.0443   8.0590  12.2290 C.ar           1 <1>               -0.0519
     15 C9         -25.0413   8.2393   9.6652 C.ar           1 <1>               -0.0378
     16 C10        -24.9626   9.4115  10.4400 C.ar           1 <1>               -0.0598
     17 C11        -24.4574   9.3210  11.7109 C.ar           1 <1>               -0.0611
     18 C12        -23.9673   3.5111  10.6385 C.ar           1 <1>               -0.0375
     19 C13        -23.4437   2.9026  11.7255 C.ar           1 <1>               -0.0563
     20 C14        -23.1203   3.6348  12.8562 C.ar           1 <1>               -0.0192
     21 C15        -21.9585   6.9735  16.2297 C.3            1 <1>                0.0253
     22 C16        -20.8658   8.9785  17.0791 C.3            1 <1>                0.0302
     23 C17        -21.0553  10.1050  18.0820 C.3            1 <1>                0.1022
     24 C18        -22.7144  11.9212  18.3795 C.ar           1 <1>                0.1619
     25 C19        -23.9223  12.4986  18.0039 C.ar           1 <1>                0.1615
     26 C20        -24.5198  13.5035  18.7834 C.ar           1 <1>               -0.0163
     27 C21        -23.8922  13.9775  19.9144 C.ar           1 <1>               -0.0581
     28 C22        -22.6804  13.4025  20.2903 C.ar           1 <1>               -0.0581
     29 C23        -22.1136  12.3739  19.5295 C.ar           1 <1>               -0.0163
     30 C24        -25.3935  12.9523  16.1133 C.3            1 <1>                0.0790
     31 H1         -24.1155   6.8109  16.0319 H              1 <1>                0.0640
     32 HN1        -24.9147   5.3841   8.7841 H              1 <1>                0.1659
     33 HO1        -24.2602   5.0894  17.5634 H              1 <1>                0.2100
     34 H21        -24.0112   4.4437  15.2540 H              1 <1>                0.0723
     35 H22        -22.2071   4.5130  15.4232 H              1 <1>                0.0723
     36 HN2        -22.4422   7.9628  17.9677 H              1 <1>                0.1221
     37 H8         -23.6411   7.9937  13.2287 H              1 <1>                0.0624
     38 H9         -25.3947   8.3120   8.6477 H              1 <1>                0.0638
     39 H10        -25.2965  10.3538  10.0299 H              1 <1>                0.0618
     40 H11        -24.3730  10.2091  12.3203 H              1 <1>                0.0618
     41 H12        -24.2106   2.9206   9.7677 H              1 <1>                0.0638
     42 H13        -23.2736   1.8363  11.7175 H              1 <1>                0.0619
     43 H14        -22.7221   3.1564  13.7387 H              1 <1>                0.0654
     44 H151       -21.7205   7.2428  15.2011 H              1 <1>                0.0450
     45 H152       -21.1586   6.3801  16.6725 H              1 <1>                0.0450
     46 H161       -20.6566   9.3998  16.0956 H              1 <1>                0.0457
     47 H162       -20.0652   8.3217  17.4189 H              1 <1>                0.0457
     48 H171       -21.3153   9.6852  19.0539 H              1 <1>                0.0709
     49 H172       -20.1498  10.7107  18.1228 H              1 <1>                0.0709
     50 H20        -25.4779  13.9103  18.4973 H              1 <1>                0.0655
     51 H21        -24.3410  14.7767  20.4857 H              1 <1>                0.0619
     52 H22        -22.1697  13.7497  21.1764 H              1 <1>                0.0619
     53 H23        -21.1853  11.9346  19.8627 H              1 <1>                0.0655
     54 H241       -26.3446  13.0709  16.6317 H              1 <1>                0.0660
     55 H242       -24.8999  13.9206  16.0353 H              1 <1>                0.0660
     56 H243       -25.5715  12.5542  15.1145 H              1 <1>                0.0660
     57 ****       -23.3832   6.2370  18.2517 LP             1 <1>                0.0000
     58 ****       -22.6770   4.8845  17.6696 LP             1 <1>                0.0000
     59 ****       -22.8730   8.7686  16.6084 LP             1 <1>                0.0000
     60 ****       -22.0879   6.0505  13.8580 LP             1 <1>                0.0000
     61 ****       -23.6533   6.5016  13.9707 LP             1 <1>                0.0000
     62 ****       -21.8160  11.3411  16.7652 LP             1 <1>                0.0000
     63 ****       -22.8796  10.2681  17.3849 LP             1 <1>                0.0000
     64 ****       -23.8382  11.7335  16.2253 LP             1 <1>                0.0000
     65 ****       -25.1255  11.2666  17.1150 LP             1 <1>                0.0000
@<TRIPOS>BOND
    1    1    4 1     
    2    1   21 1     
    3    1    3 1     
    4    1   31 1     
    5    2   12 ar    
    6    2   13 ar    
    7    2   32 1     
    8    3   33 1     
    9    4    6 1     
   10    4   34 1     
   11    4   35 1     
   12    5   22 1     
   13    5   21 1     
   14    5   36 1     
   15    6    7 1     
   16    7    9 ar    
   17    7   20 ar    
   18    8   24 1     
   19    8   23 1     
   20    9   11 ar    
   21    9   12 ar    
   22   10   30 1     
   23   10   25 1     
   24   11   13 ar    
   25   11   14 ar    
   26   12   18 ar    
   27   13   15 ar    
   28   14   17 ar    
   29   14   37 1     
   30   15   16 ar    
   31   15   38 1     
   32   16   17 ar    
   33   16   39 1     
   34   17   40 1     
   35   18   19 ar    
   36   18   41 1     
   37   19   20 ar    
   38   19   42 1     
   39   20   43 1     
   40   21   44 1     
   41   21   45 1     
   42   22   23 1     
   43   22   46 1     
   44   22   47 1     
   45   23   48 1     
   46   23   49 1     
   47   24   25 ar    
   48   24   29 ar    
   49   25   26 ar    
   50   26   27 ar    
   51   26   50 1     
   52   27   28 ar    
   53   27   51 1     
   54   28   29 ar    
   55   28   52 1     
   56   29   53 1     
   57   30   54 1     
   58   30   55 1     
   59   30   56 1     
   60    3   57 1     
   61    3   58 1     
   62    5   59 1     
   63    6   60 1     
   64    6   61 1     
   65    8   62 1     
   66    8   63 1     
   67   10   64 1     
   68   10   65 1     
@<TRIPOS>SUBSTRUCTURE
      1 ****           1
@<TRIPOS>SET
LONE_PAIRS      STATIC     ATOMS    <user>   **** ""
9 57 58 59 60 61 62 63 64 65
DONOR_HYDROGENS      STATIC     ATOMS    <user>   **** ""
3 32 33 36
ATOM$BLUE        STATIC     ATOMS    COLORGROUP SYSTEM
9 57 58 59 60 61 62 63 64 65
ATOM$RED        STATIC     ATOMS    COLORGROUP SYSTEM
3 32 33 36
@<TRIPOS>COMMENT
> <Gold.Version>
5.6

> <Gold.Id.Protein>
unknown|bialko_beta1 1|pdb

> <Gold.Protein.ActiveResidues>
 ALA86   ASP87   VAL90   VAL94   VAL95   GLY98   ALA99   LEU101  VAL102  CYS114 
 GLU115  TRP117  THR118  SER119  LEU120  ASP121  VAL122  CYS124  VAL125  THR126 
 SER128  SER173  PHE174  ILE177  CYS199  ASP200  PHE201  TYR207  SER215  PHE299 
 TRP303  PHE306  PHE307  ASN310  PHE325  VAL326  ASN329  TRP330  GLY332  TYR333 
 SER336 

> <Gold.Score>
     Fitness  S(hb_ext) S(vdw_ext)  S(hb_int)    S(int)      intcor
     66.58       0.00      49.62       0.00      -1.65     -11.37

> <Gold.Goldscore.Fitness>
66.5797

> <Gold.Goldscore.Internal.Vdw>
-9.4533

> <Gold.Goldscore.Internal.Torsion>
-3.5720

> <Gold.Goldscore.External.Vdw>
49.6224

> <Gold.Goldscore.Internal.HBond>
0.0000

> <Gold.Goldscore.External.HBond>
0.0000

> <Gold.Goldscore.Internal.Correction>
-11.3742

> <Gold.Goldscore.Internal.Vdw.Weighted>
-9.4533

> <Gold.Goldscore.Internal.Torsion.Weighted>
-3.5720

> <Gold.Goldscore.External.Vdw.Weighted>
68.2308

> <Gold.Goldscore.Internal.HBond.Weighted>
0.0000

> <Gold.Goldscore.External.HBond.Weighted>
0.0000

> <Gold.Goldscore.Internal.Correction.Weighted>
-11.3742

