#       Name:                C:\Users\porto\OneDrive\projekt\beta2\ligandy\L_3nya.pdb L_3nya.pdb 1
#       Creating user name   student
#       Creation time:       Mon Apr 08 14:20:53 2019


#       File generated by GOLD software.
#

@<TRIPOS>MOLECULE
C:\Users\porto\OneDrive\projekt\beta2\ligandy\L_3nya.pdb L_3nya.pdb 1|3nya|mol2|1|dock8
    46    46     1
SMALL
GASTEIGER


@<TRIPOS>ATOM
      1 C1         -33.6218   6.7441   4.7959 C.3            1 <1>               -0.0499
      2 N1         -32.6302   8.3775   6.3711 N.3            1 <1>               -0.3112
      3 O1         -33.1958  10.3160   8.0998 O.3            1 <1>               -0.3872
      4 C2         -32.6192   6.9670   5.9294 C.3            1 <1>                0.0021
      5 O2         -29.7121  10.6033   7.0292 O.3            1 <1>               -0.4891
      6 C3         -32.9351   6.0745   7.1248 C.3            1 <1>               -0.0499
      7 C4         -31.6206   8.6064   7.4133 C.3            1 <1>                0.0254
      8 C5         -31.8049   9.9909   8.0113 C.3            1 <1>                0.1015
      9 C6         -31.0855  10.9782   7.1131 C.3            1 <1>                0.1166
     10 C7         -28.7816  11.3783   6.3821 C.ar           1 <1>                0.1241
     11 C8         -29.0766  12.6987   6.0483 C.ar           1 <1>               -0.0197
     12 C9         -28.1363  13.4816   5.3921 C.ar           1 <1>               -0.0583
     13 C10        -26.8939  12.9540   5.0678 C.ar           1 <1>               -0.0613
     14 C11        -26.5917  11.6445   5.4001 C.ar           1 <1>               -0.0548
     15 C12        -27.5323  10.8543   6.0580 C.ar           1 <1>               -0.0020
     16 C13        -27.1723   9.4305   6.4105 C.3            1 <1>               -0.0063
     17 C14        -25.6789   9.3335   6.5846 C.2            1 <1>               -0.0867
     18 C15        -25.0777   8.1604   6.5579 C.2            1 <1>               -0.1023
     19 H11        -33.5954   5.6987   4.4872 H              1 <1>                0.0245
     20 H12        -34.6241   6.9959   5.1421 H              1 <1>                0.0245
     21 H13        -33.3609   7.3786   3.9486 H              1 <1>                0.0245
     22 HN1        -32.4276   8.9787   5.5849 H              1 <1>                0.1223
     23 HO1        -33.4352  10.8989   7.3756 H              1 <1>                0.2100
     24 H2         -31.6207   6.7230   5.5658 H              1 <1>                0.0455
     25 H31        -32.2069   6.2535   7.9152 H              1 <1>                0.0245
     26 H32        -33.9353   6.3022   7.4946 H              1 <1>                0.0245
     27 H33        -32.8900   5.0290   6.8202 H              1 <1>                0.0245
     28 H41        -30.6243   8.5290   6.9773 H              1 <1>                0.0450
     29 H42        -31.7300   7.8553   8.1962 H              1 <1>                0.0450
     30 H5         -31.3619  10.0180   9.0070 H              1 <1>                0.0640
     31 H61        -31.5299  10.9541   6.1176 H              1 <1>                0.0723
     32 H62        -31.1632  11.9791   7.5374 H              1 <1>                0.0723
     33 H8         -30.0399  13.1173   6.3006 H              1 <1>                0.0654
     34 H9         -28.3705  14.5033   5.1329 H              1 <1>                0.0619
     35 H10        -26.1648  13.5645   4.5571 H              1 <1>                0.0618
     36 H11        -25.6250  11.2330   5.1496 H              1 <1>                0.0622
     37 H131       -27.4881   8.7659   5.6055 H              1 <1>                0.0357
     38 H132       -27.6653   9.1514   7.3413 H              1 <1>                0.0357
     39 H14        -25.1003  10.2336   6.7314 H              1 <1>                0.0570
     40 H151       -24.0064   8.1000   6.6835 H              1 <1>                0.0532
     41 H152       -25.6564   7.2604   6.4110 H              1 <1>                0.0532
     42 ****       -33.5355   8.5831   6.7428 LP             1 <1>                0.0000
     43 ****       -33.3762  10.7744   8.9701 LP             1 <1>                0.0000
     44 ****       -33.7381   9.4776   8.0461 LP             1 <1>                0.0000
     45 ****       -29.6933   9.7104   6.5794 LP             1 <1>                0.0000
     46 ****       -29.3903  10.5088   7.9713 LP             1 <1>                0.0000
@<TRIPOS>BOND
    1    1    4 1     
    2    1   19 1     
    3    1   20 1     
    4    1   21 1     
    5    2    4 1     
    6    2    7 1     
    7    2   22 1     
    8    3    8 1     
    9    3   23 1     
   10    4    6 1     
   11    4   24 1     
   12    5    9 1     
   13    5   10 1     
   14    6   25 1     
   15    6   26 1     
   16    6   27 1     
   17    7    8 1     
   18    7   28 1     
   19    7   29 1     
   20    8    9 1     
   21    8   30 1     
   22    9   31 1     
   23    9   32 1     
   24   10   11 ar    
   25   10   15 ar    
   26   11   12 ar    
   27   11   33 1     
   28   12   13 ar    
   29   12   34 1     
   30   13   14 ar    
   31   13   35 1     
   32   14   15 ar    
   33   14   36 1     
   34   15   16 1     
   35   16   17 1     
   36   16   37 1     
   37   16   38 1     
   38   17   18 2     
   39   17   39 1     
   40   18   40 1     
   41   18   41 1     
   42    2   42 1     
   43    3   43 1     
   44    3   44 1     
   45    5   45 1     
   46    5   46 1     
@<TRIPOS>SUBSTRUCTURE
      1 ****           1
@<TRIPOS>SET
LONE_PAIRS      STATIC     ATOMS    <user>   **** ""
5 42 43 44 45 46
DONOR_HYDROGENS      STATIC     ATOMS    <user>   **** ""
2 22 23
ATOM$BLUE        STATIC     ATOMS    COLORGROUP SYSTEM
5 42 43 44 45 46
ATOM$RED        STATIC     ATOMS    COLORGROUP SYSTEM
2 22 23
@<TRIPOS>COMMENT
> <Gold.Version>
5.5

> <Gold.Id.Protein>
unknown|dok_beta2|pdb

> <Gold.Protein.RotatedTorsions>
[ 4175 4166 4165 4163 ] final  -91.04 input -179.98 | X-H torsion
[ 1294 1290 1288 1285 ] final  -76.63 input -179.99 | X-H torsion
[ 4033 4024 4023 4021 ] final  117.23 input  179.98 | X-H torsion
[ 1412 1408 1406 1403 ] final  -77.53 input -179.99 | X-H torsion
[ 2830 2825 2824 2821 ] final   -4.02 input -179.98 | X-H torsion
[ 2723 2714 2713 2711 ] final  -20.45 input -179.98 | X-H torsion
[ 2773 2768 2767 2764 ] final  143.83 input  180.00 | X-H torsion

> <Gold.Protein.ActiveResidues>
 TRP109  THR110  ASP113  VAL114  VAL117  THR118  PHE193  TYR199  SER203  SER207 
 PHE208  TRP286  PHE289  PHE290  ASN293  TYR308  ASN312  TYR316 

> <Gold.Protein.RotatedAtoms>
  -34.4443    4.4767    2.6551 H   0  0  0  0  0  0  0  0  0  0  0  0  # atno 1294 bound_to 1290
  -26.6954   15.1568    2.9376 H   0  0  0  0  0  0  0  0  0  0  0  0  # atno 1412 bound_to 1408
  -26.0159    8.1876    1.4456 H   0  0  0  0  0  0  0  0  0  0  0  0  # atno 2723 bound_to 2714
  -24.4433    9.5232    2.4586 H   0  0  0  0  0  0  0  0  0  0  0  0  # atno 2773 bound_to 2768
  -23.5077   13.9614    2.2758 H   0  0  0  0  0  0  0  0  0  0  0  0  # atno 2830 bound_to 2825
  -28.8249    7.0510   11.2799 H   0  0  0  0  0  0  0  0  0  0  0  0  # atno 4033 bound_to 4024
  -36.3240    8.6022    8.4621 H   0  0  0  0  0  0  0  0  0  0  0  0  # atno 4175 bound_to 4166
  -36.6616    9.3552    7.0910 LP  0  0  0  0  0  0  0  0  0  0  0  0  # atno 4597 bound_to 4166
  -37.7907    8.4450    7.8416 LP  0  0  0  0  0  0  0  0  0  0  0  0  # atno 4598 bound_to 4166
  -34.0975    3.5307    1.4116 LP  0  0  0  0  0  0  0  0  0  0  0  0  # atno 4603 bound_to 1290
  -35.4464    4.4511    1.4075 LP  0  0  0  0  0  0  0  0  0  0  0  0  # atno 4604 bound_to 1290
  -29.1421    5.6510   10.5716 LP  0  0  0  0  0  0  0  0  0  0  0  0  # atno 4607 bound_to 4024
  -27.7415    5.8769   11.3803 LP  0  0  0  0  0  0  0  0  0  0  0  0  # atno 4608 bound_to 4024
  -27.4289   14.5329    1.6593 LP  0  0  0  0  0  0  0  0  0  0  0  0  # atno 4611 bound_to 1408
  -28.2676   14.8693    3.0195 LP  0  0  0  0  0  0  0  0  0  0  0  0  # atno 4612 bound_to 1408
  -25.0678   13.6063    2.2672 LP  0  0  0  0  0  0  0  0  0  0  0  0  # atno 4613 bound_to 2825
  -24.0144   12.7118    3.1371 LP  0  0  0  0  0  0  0  0  0  0  0  0  # atno 4614 bound_to 2825

> <Gold.Score>
     Score     S(PLP)   S(hbond)     S(cho)   S(metal)  DE(clash)   DE(tors)     intcor
     72.03     -67.99       1.91       0.00       0.00       0.00       0.95       0.21

> <Gold.PLP.Fitness>
72.0323

> <Gold.PLP.PLP>
-67.9854

> <Gold.PLP.part.hbond>
-3.2447

> <Gold.PLP.part.metal>
0.0000

> <Gold.PLP.part.buried>
-7.7103

> <Gold.PLP.part.nonpolar>
-57.5144

> <Gold.PLP.part.repulsive>
0.0028

> <Gold.PLP.ligand.clash>
0.0000

> <Gold.PLP.ligand.torsion>
0.9483

> <Gold.PLP.Chemscore.Hbond>
1.9120

> <Gold.PLP.Chemscore.CHOScore>
0.0000

> <Gold.PLP.Chemscore.Metal>
0.0000

> <Gold.Chemscore.Hbonds>
donor molecule, donor type, donor heavy atom, donor atom, acceptor molecule, acceptor atom, score
      L1  H     3    23       P1  1334  1.00
      P1  H  4097  4104       L1     3  0.91

> <Gold.PLP.Chemscore.Internal.Correction>
0.2075

