#       Name:                C:\Users\porto\OneDrive\projekt\beta1\ligandy\L_6h7m.pdb L_6h7m.pdb 1
#       Creating user name   student
#       Creation time:       Mon Apr 08 14:20:38 2019


#       File generated by GOLD software.
#

@<TRIPOS>MOLECULE
C:\Users\porto\OneDrive\projekt\beta1\ligandy\L_6h7m.pdb L_6h7m.pdb 1|6h7m|mol2|1|dock2
    45    45     1
SMALL
GASTEIGER


@<TRIPOS>ATOM
      1 C1         -23.4561   7.0847  16.3921 C.3            1 <1>                0.0926
      2 N1         -22.3308   9.1976  16.9772 N.3            1 <1>               -0.3086
      3 O1         -23.2507   3.4030  12.0703 O.3            1 <1>               -0.5064
      4 C2         -23.2693   6.3158  11.4568 C.3            1 <1>                0.0727
      5 O2         -22.1012   5.9141  10.7187 O.3            1 <1>               -0.3903
      6 C3         -22.1762   7.9111  16.3195 C.3            1 <1>                0.0266
      7 O3         -23.6202   6.5039  17.6916 O.3            1 <1>               -0.3859
      8 C4         -21.6262   9.5139  18.2173 C.3            1 <1>                0.0108
      9 C5         -22.4072   8.8999  19.4027 C.3            1 <1>               -0.0473
     10 C6         -21.4937  11.0414  18.3705 C.3            1 <1>               -0.0473
     11 C7         -20.2207   8.8969  18.1144 C.3            1 <1>               -0.0473
     12 C8         -23.4055   6.0960  15.2747 C.ar           1 <1>               -0.0174
     13 C9         -23.3949   4.7169  15.4948 C.ar           1 <1>               -0.0526
     14 C10        -23.3501   3.8233  14.4216 C.ar           1 <1>               -0.0195
     15 C11        -23.2989   4.2845  13.1016 C.ar           1 <1>                0.1222
     16 C12        -23.3001   5.7448  12.8574 C.ar           1 <1>                0.0195
     17 C13        -23.3543   6.5946  13.9599 C.ar           1 <1>               -0.0472
     18 H1         -24.2981   7.7529  16.2127 H              1 <1>                0.0656
     19 HN1        -23.3273   9.2568  17.1305 H              1 <1>                0.1225
     20 HO1        -23.8051   3.7182  11.3532 H              1 <1>                0.2921
     21 H21        -23.3083   7.4037  11.5084 H              1 <1>                0.0608
     22 H22        -24.1641   6.0027  10.9184 H              1 <1>                0.0608
     23 HO2        -21.5884   6.6906  10.4819 H              1 <1>                0.2098
     24 H31        -21.9039   8.0683  15.2758 H              1 <1>                0.0453
     25 H32        -21.3615   7.3591  16.7880 H              1 <1>                0.0453
     26 HO3        -24.1428   7.0920  18.2420 H              1 <1>                0.2103
     27 H51        -21.8920   9.1284  20.3355 H              1 <1>                0.0247
     28 H52        -23.4135   9.3188  19.4320 H              1 <1>                0.0247
     29 H53        -22.4676   7.8189  19.2772 H              1 <1>                0.0247
     30 H61        -20.9673  11.2696  19.2973 H              1 <1>                0.0247
     31 H62        -20.9336  11.4447  17.5267 H              1 <1>                0.0247
     32 H63        -22.4862  11.4922  18.3957 H              1 <1>                0.0247
     33 H71        -19.6617   9.1117  19.0245 H              1 <1>                0.0247
     34 H72        -20.3061   7.8176  17.9870 H              1 <1>                0.0247
     35 H73        -19.6982   9.3233  17.2579 H              1 <1>                0.0247
     36 H9         -23.4217   4.3307  16.5029 H              1 <1>                0.0622
     37 H10        -23.3546   2.7587  14.6051 H              1 <1>                0.0654
     38 H13        -23.3567   7.6605  13.7860 H              1 <1>                0.0626
     39 ****       -21.8941   9.8669  16.3761 LP             1 <1>                0.0000
     40 ****       -23.5804   2.5108  12.3790 LP             1 <1>                0.0000
     41 ****       -22.3076   3.3171  11.7493 LP             1 <1>                0.0000
     42 ****       -22.3813   5.4337   9.8876 LP             1 <1>                0.0000
     43 ****       -21.5433   5.3059  11.2833 LP             1 <1>                0.0000
     44 ****       -22.7228   6.3654  18.1105 LP             1 <1>                0.0000
     45 ****       -24.0878   5.6240  17.6067 LP             1 <1>                0.0000
@<TRIPOS>BOND
    1    1    6 1     
    2    1    7 1     
    3    1   12 1     
    4    1   18 1     
    5    2    8 1     
    6    2    6 1     
    7    2   19 1     
    8    3   15 1     
    9    3   20 1     
   10    4   16 1     
   11    4    5 1     
   12    4   21 1     
   13    4   22 1     
   14    5   23 1     
   15    6   24 1     
   16    6   25 1     
   17    7   26 1     
   18    8    9 1     
   19    8   10 1     
   20    8   11 1     
   21    9   27 1     
   22    9   28 1     
   23    9   29 1     
   24   10   30 1     
   25   10   31 1     
   26   10   32 1     
   27   11   33 1     
   28   11   34 1     
   29   11   35 1     
   30   12   13 ar    
   31   12   17 ar    
   32   13   14 ar    
   33   13   36 1     
   34   14   15 ar    
   35   14   37 1     
   36   15   16 ar    
   37   16   17 ar    
   38   17   38 1     
   39    2   39 1     
   40    3   40 1     
   41    3   41 1     
   42    5   42 1     
   43    5   43 1     
   44    7   44 1     
   45    7   45 1     
@<TRIPOS>SUBSTRUCTURE
      1 ****           1
@<TRIPOS>SET
LONE_PAIRS      STATIC     ATOMS    <user>   **** ""
7 39 40 41 42 43 44 45
DONOR_HYDROGENS      STATIC     ATOMS    <user>   **** ""
4 19 20 23 26
ATOM$BLUE        STATIC     ATOMS    COLORGROUP SYSTEM
7 39 40 41 42 43 44 45
ATOM$RED        STATIC     ATOMS    COLORGROUP SYSTEM
4 19 20 23 26
@<TRIPOS>COMMENT
> <Gold.Version>
5.5

> <Gold.Id.Protein>
unknown|bialko_beta1|pdb

> <Gold.Protein.ActiveResidues>
 ALA86   ASP87   VAL90   VAL94   VAL95   GLY98   ALA99   LEU101  VAL102  CYS114 
 GLU115  TRP117  THR118  SER119  LEU120  ASP121  VAL122  CYS124  VAL125  THR126 
 SER128  SER173  PHE174  ILE177  CYS199  ASP200  PHE201  TYR207  SER215  PHE299 
 TRP303  PHE306  PHE307  ASN310  PHE325  VAL326  ASN329  TRP330  GLY332  TYR333 
 SER336 

> <Gold.Score>
     Score     S(PLP)   S(hbond)     S(cho)   S(metal)  DE(clash)   DE(tors)     intcor
     56.90     -55.62       1.00       0.00       0.00       0.00       0.92       0.11

> <Gold.PLP.Fitness>
56.8979

> <Gold.PLP.PLP>
-55.6179

> <Gold.PLP.part.hbond>
-2.3844

> <Gold.PLP.part.metal>
0.0000

> <Gold.PLP.part.buried>
-6.1675

> <Gold.PLP.part.nonpolar>
-47.6756

> <Gold.PLP.part.repulsive>
0.0000

> <Gold.PLP.ligand.clash>
0.0000

> <Gold.PLP.ligand.torsion>
0.9154

> <Gold.PLP.Chemscore.Hbond>
1.0000

> <Gold.PLP.Chemscore.CHOScore>
0.0000

> <Gold.PLP.Chemscore.Metal>
0.0000

> <Gold.Chemscore.Hbonds>
donor molecule, donor type, donor heavy atom, donor atom, acceptor molecule, acceptor atom, score
      L1  H     7    26       P1  2066  1.00

> <Gold.PLP.Chemscore.Internal.Correction>
0.1107

