#       Name:                C:\Users\porto\OneDrive\projekt\beta2\ligandy\L_4qkx.pdb L_4qkx.pdb 1
#       Creating user name   student
#       Creation time:       Mon Apr 08 14:31:41 2019


#       File generated by GOLD software.
#

@<TRIPOS>MOLECULE
C:\Users\porto\OneDrive\projekt\beta2\ligandy\L_4qkx.pdb L_4qkx.pdb 1|4qkx|mol2|1|dock18
    62    63     1
SMALL
GASTEIGER


@<TRIPOS>ATOM
      1 CAA        -27.5296  13.3608   4.6978 C.3            1 <1>                0.0790
      2 CAF        -33.8493   4.8007   4.5502 C.ar           1 <1>               -0.0162
      3 CAG        -28.8738   9.3790   7.2474 C.ar           1 <1>               -0.0548
      4 CAH        -33.4893   5.9882   5.1749 C.ar           1 <1>               -0.0524
      5 CAI        -27.5706   9.1677   6.8036 C.ar           1 <1>               -0.0160
      6 CAJ        -34.0403   5.0848   7.3460 C.ar           1 <1>               -0.0109
      7 CAK        -28.7640  11.6491   6.4394 C.ar           1 <1>               -0.0131
      8 CAL        -25.0515   7.7231   5.9388 C.3            1 <1>                0.0249
      9 CAM        -31.6381   9.6844   7.1226 C.3            1 <1>               -0.0000
     10 CAN        -24.8749   9.1300   6.5242 C.3            1 <1>                0.0985
     11 CAO        -30.7819  10.9147   7.4578 C.3            1 <1>               -0.0150
     12 CAP        -31.9736   7.2434   8.0377 C.3            1 <1>                0.0261
     13 CAT        -34.3068   3.7582   5.3396 C.ar           1 <1>                0.1582
     14 CAU        -34.4020   3.8974   6.7202 C.ar           1 <1>                0.1586
     15 CAV        -29.4692  10.6291   7.0715 C.ar           1 <1>               -0.0425
     16 CAW        -33.5950   6.1347   6.5549 C.ar           1 <1>               -0.0143
     17 CAX        -26.8759  10.1972   6.1842 C.ar           1 <1>                0.1619
     18 CAY        -27.4746  11.4354   5.9936 C.ar           1 <1>                0.1618
     19 CAZ        -33.2107   7.3402   7.1304 C.3            1 <1>                0.0927
     20 NAQ        -31.6353   8.6594   8.1761 N.3            1 <1>               -0.3129
     21 OAB        -34.6789   2.5631   4.8085 O.3            1 <1>               -0.5033
     22 OAC        -34.8624   2.8226   7.4164 O.3            1 <1>               -0.5033
     23 OAD        -34.2831   7.9732   7.8466 O.3            1 <1>               -0.3859
     24 OAR        -26.7269  12.4019   5.3980 O.3            1 <1>               -0.4914
     25 OAS        -25.5989  10.0741   5.7305 O.3            1 <1>               -0.4875
     26 SAE        -25.1135   6.4443   7.2429 S.3            1 <1>               -0.1749
     27 HAA1       -26.8846  14.1108   4.2405 H              1 <1>                0.0660
     28 HAA2       -28.1055  12.8565   3.9219 H              1 <1>                0.0660
     29 HAA3       -28.2101  13.8458   5.3974 H              1 <1>                0.0660
     30 HAF        -33.7692   4.7088   3.4767 H              1 <1>                0.0655
     31 HAG        -29.4181   8.5783   7.7252 H              1 <1>                0.0621
     32 HAH        -33.1203   6.8162   4.5881 H              1 <1>                0.0622
     33 HAI        -27.1023   8.2044   6.9413 H              1 <1>                0.0655
     34 HAJ        -34.1096   5.1714   8.4198 H              1 <1>                0.0659
     35 HAK        -29.2315  12.6123   6.2985 H              1 <1>                0.0658
     36 HAL1       -25.9694   7.6868   5.3514 H              1 <1>                0.0407
     37 HAL2       -24.2279   7.5078   5.2585 H              1 <1>                0.0407
     38 HAM1       -31.2885   9.2436   6.1883 H              1 <1>                0.0427
     39 HAM2       -32.6629   9.9994   6.9275 H              1 <1>                0.0427
     40 HAN1       -23.8172   9.3921   6.5260 H              1 <1>                0.0705
     41 HAN2       -25.2533   9.1488   7.5458 H              1 <1>                0.0705
     42 HAO1       -30.8128  11.0958   8.5322 H              1 <1>                0.0325
     43 HAO2       -31.1460  11.7745   6.8960 H              1 <1>                0.0325
     44 HAP1       -32.2748   6.8524   9.0092 H              1 <1>                0.0453
     45 HAP2       -31.1741   6.7376   7.4971 H              1 <1>                0.0453
     46 HAZ        -32.9453   8.0074   6.3109 H              1 <1>                0.0656
     47 HNAQ       -30.7072   8.5789   8.5661 H              1 <1>                0.1220
     48 HOAB       -35.6325   2.5439   4.6992 H              1 <1>                0.2923
     49 HOAC       -35.6163   2.4433   6.9589 H              1 <1>                0.2923
     50 HOAD       -33.9885   8.1982   8.7315 H              1 <1>                0.2103
     51 HSAE       -25.3911   5.2592   6.6923 H              1 <1>                0.1017
     52 ****       -32.4148   9.0580   8.6593 LP             1 <1>                0.0000
     53 ****       -34.3988   1.8244   5.4216 LP             1 <1>                0.0000
     54 ****       -34.2390   2.4426   3.9186 LP             1 <1>                0.0000
     55 ****       -35.1400   3.1129   8.3322 LP             1 <1>                0.0000
     56 ****       -34.1377   2.1375   7.4892 LP             1 <1>                0.0000
     57 ****       -35.0609   7.3473   7.9034 LP             1 <1>                0.0000
     58 ****       -34.5593   8.8053   7.3657 LP             1 <1>                0.0000
     59 ****       -26.1984  12.8779   6.1010 LP             1 <1>                0.0000
     60 ****       -26.1026  11.9696   4.7473 LP             1 <1>                0.0000
     61 ****       -25.6157   9.7616   4.7807 LP             1 <1>                0.0000
     62 ****       -25.1446  10.9635   5.7807 LP             1 <1>                0.0000
@<TRIPOS>BOND
    1    1   24 1     
    2    1   27 1     
    3    1   28 1     
    4    1   29 1     
    5    2    4 ar    
    6    2   13 ar    
    7    2   30 1     
    8    3    5 ar    
    9    3   15 ar    
   10    3   31 1     
   11    4   16 ar    
   12    4   32 1     
   13    5   17 ar    
   14    5   33 1     
   15    6   14 ar    
   16    6   16 ar    
   17    6   34 1     
   18    7   18 ar    
   19    7   15 ar    
   20    7   35 1     
   21    8   26 1     
   22    8   10 1     
   23    8   36 1     
   24    8   37 1     
   25    9   11 1     
   26    9   20 1     
   27    9   38 1     
   28    9   39 1     
   29   10   25 1     
   30   10   40 1     
   31   10   41 1     
   32   11   15 1     
   33   11   42 1     
   34   11   43 1     
   35   12   20 1     
   36   12   19 1     
   37   12   44 1     
   38   12   45 1     
   39   13   21 1     
   40   13   14 ar    
   41   14   22 1     
   42   16   19 1     
   43   17   25 1     
   44   17   18 ar    
   45   18   24 1     
   46   19   23 1     
   47   19   46 1     
   48   20   47 1     
   49   21   48 1     
   50   22   49 1     
   51   23   50 1     
   52   26   51 1     
   53   20   52 1     
   54   21   53 1     
   55   21   54 1     
   56   22   55 1     
   57   22   56 1     
   58   23   57 1     
   59   23   58 1     
   60   24   59 1     
   61   24   60 1     
   62   25   61 1     
   63   25   62 1     
@<TRIPOS>SUBSTRUCTURE
      1 ****           1
@<TRIPOS>SET
LONE_PAIRS      STATIC     ATOMS    <user>   **** ""
11 52 53 54 55 56 57 58 59 60 61 62
DONOR_HYDROGENS      STATIC     ATOMS    <user>   **** ""
4 47 48 49 50
ATOM$BLUE        STATIC     ATOMS    COLORGROUP SYSTEM
11 52 53 54 55 56 57 58 59 60 61 62
ATOM$RED        STATIC     ATOMS    COLORGROUP SYSTEM
4 47 48 49 50
@<TRIPOS>COMMENT
> <Gold.Version>
5.5

> <Gold.Id.Protein>
unknown|dok_beta2|pdb

> <Gold.Protein.RotatedTorsions>
[ 4175 4166 4165 4163 ] final -145.33 input -179.98 | X-H torsion
[ 1294 1290 1288 1285 ] final  118.23 input -179.99 | X-H torsion
[ 4033 4024 4023 4021 ] final  -82.48 input  179.98 | X-H torsion
[ 1412 1408 1406 1403 ] final  -93.30 input -179.99 | X-H torsion
[ 2830 2825 2824 2821 ] final   -7.81 input -179.98 | X-H torsion
[ 2723 2714 2713 2711 ] final    4.96 input -179.98 | X-H torsion
[ 2773 2768 2767 2764 ] final  -96.32 input  180.00 | X-H torsion

> <Gold.Protein.ActiveResidues>
 TRP109  THR110  ASP113  VAL114  VAL117  THR118  PHE193  TYR199  SER203  SER207 
 PHE208  TRP286  PHE289  PHE290  ASN293  TYR308  ASN312  TYR316 

> <Gold.Protein.RotatedAtoms>
  -34.6679    3.7302    1.0385 H   0  0  0  0  0  0  0  0  0  0  0  0  # atno 1294 bound_to 1290
  -26.5977   15.0951    2.7178 H   0  0  0  0  0  0  0  0  0  0  0  0  # atno 1412 bound_to 1408
  -26.1790    7.9065    1.2160 H   0  0  0  0  0  0  0  0  0  0  0  0  # atno 2723 bound_to 2714
  -24.4956   10.1577    3.8894 H   0  0  0  0  0  0  0  0  0  0  0  0  # atno 2773 bound_to 2768
  -23.5477   13.9929    2.2446 H   0  0  0  0  0  0  0  0  0  0  0  0  # atno 2830 bound_to 2825
  -28.0812    5.4450   11.0569 H   0  0  0  0  0  0  0  0  0  0  0  0  # atno 4033 bound_to 4024
  -36.0640    9.0959    7.8537 H   0  0  0  0  0  0  0  0  0  0  0  0  # atno 4175 bound_to 4166
  -37.4685    9.0567    7.0878 LP  0  0  0  0  0  0  0  0  0  0  0  0  # atno 4597 bound_to 4166
  -37.2548    8.2289    8.4790 LP  0  0  0  0  0  0  0  0  0  0  0  0  # atno 4598 bound_to 4166
  -35.3562    4.7523    2.0597 LP  0  0  0  0  0  0  0  0  0  0  0  0  # atno 4603 bound_to 1290
  -33.9547    4.0075    2.4441 LP  0  0  0  0  0  0  0  0  0  0  0  0  # atno 4604 bound_to 1290
  -28.2453    6.9649   11.5314 LP  0  0  0  0  0  0  0  0  0  0  0  0  # atno 4607 bound_to 4024
  -29.4129    6.2358   10.6528 LP  0  0  0  0  0  0  0  0  0  0  0  0  # atno 4608 bound_to 4024
  -27.6819   14.4998    1.7023 LP  0  0  0  0  0  0  0  0  0  0  0  0  # atno 4611 bound_to 1408
  -28.1165   14.9667    3.2056 LP  0  0  0  0  0  0  0  0  0  0  0  0  # atno 4612 bound_to 1408
  -25.0864   13.5577    2.3015 LP  0  0  0  0  0  0  0  0  0  0  0  0  # atno 4613 bound_to 2825
  -23.9541   12.7274    3.1353 LP  0  0  0  0  0  0  0  0  0  0  0  0  # atno 4614 bound_to 2825

> <Gold.Score>
     Score     S(PLP)   S(hbond)     S(cho)   S(metal)  DE(clash)   DE(tors)     intcor
     84.66     -78.03       2.68       0.00       0.00       1.93       1.84       4.22

> <Gold.PLP.Fitness>
84.6631

> <Gold.PLP.PLP>
-78.0307

> <Gold.PLP.part.hbond>
-6.5326

> <Gold.PLP.part.metal>
0.0000

> <Gold.PLP.part.buried>
-3.6043

> <Gold.PLP.part.nonpolar>
-69.2192

> <Gold.PLP.part.repulsive>
0.1040

> <Gold.PLP.ligand.clash>
1.9270

> <Gold.PLP.ligand.torsion>
1.8449

> <Gold.PLP.Chemscore.Hbond>
2.6768

> <Gold.PLP.Chemscore.CHOScore>
0.0000

> <Gold.PLP.Chemscore.Metal>
0.0000

> <Gold.Chemscore.Hbonds>
donor molecule, donor type, donor heavy atom, donor atom, acceptor molecule, acceptor atom, score
      L1  H    23    50       P1  4098  1.00
      P1  H  4166  4175       L1    23  0.80
      P1  H  2768  2773       L1    25  0.88

> <Gold.PLP.Chemscore.Internal.Correction>
4.2187

