#       Name:                *****
#       Creating user name   student
#       Creation time:       Mon Mar 18 16:43:21 2019


#       File generated by GOLD software.
#

@<TRIPOS>MOLECULE
*****|CHEMBL256047|mol2|1|dock3
    30    31     1
SMALL
GASTEIGER


@<TRIPOS>ATOM
      1 C          -34.8879  16.3799   8.7470 C.3            1 <1>               -0.0287
      2 C          -34.4173  16.2830   7.2931 C.3            1 <1>                0.0962
      3 H          -33.5244  16.9025   7.1453 H              1 <1>                0.0719
      4 N          -34.0284  14.9012   7.1118 N.pl3          1 <1>               -0.2315
      5 C          -34.5910  14.0885   6.1956 C.2            1 <1>                0.3707
      6 N          -35.5308  14.4163   5.3756 N.2            1 <1>               -0.0765
      7 C          -36.0169  15.7321   5.4362 C.ar           1 <1>                0.1493
      8 C          -37.0629  16.0661   4.5690 C.ar           1 <1>               -0.0178
      9 C          -37.5645  17.3666   4.5184 C.ar           1 <1>               -0.0386
     10 C          -36.9953  18.3562   5.3170 C.ar           1 <1>                0.0598
     11 CL         -37.6477  19.9525   5.1771 Cl             1 <1>               -0.0820
     12 C          -35.9447  18.0376   6.1922 C.ar           1 <1>                0.0689
     13 CL         -35.1744  19.3060   7.1010 Cl             1 <1>               -0.0815
     14 C          -35.4780  16.7064   6.2982 C.ar           1 <1>                0.0484
     15 N          -34.0083  12.8633   6.2437 N.pl3          1 <1>               -0.2326
     16 C          -34.4183  11.7767   5.3606 C.3            1 <1>                0.1182
     17 C          -33.4550  10.5926   5.4273 C.3            1 <1>                0.2673
     18 F          -32.1992  11.0007   5.0919 F              1 <1>               -0.2060
     19 F          -33.3713  10.1514   6.7115 F              1 <1>               -0.2060
     20 H          -34.1057  16.0185   9.4270 H              1 <1>                0.0264
     21 H          -35.7753  15.7549   8.9150 H              1 <1>                0.0264
     22 H          -35.1395  17.3956   9.0537 H              1 <1>                0.0264
     23 H          -33.1384  14.6219   7.4987 H              1 <1>                0.2450
     24 H          -37.4863  15.2985   3.9251 H              1 <1>                0.0654
     25 H          -38.3836  17.5982   3.8425 H              1 <1>                0.0634
     26 H          -33.7445  12.5661   7.1746 H              1 <1>                0.2446
     27 H          -34.5274  12.1247   4.3270 H              1 <1>                0.0689
     28 H          -35.4096  11.4345   5.6789 H              1 <1>                0.0689
     29 H          -33.7391   9.7583   4.7813 H              1 <1>                0.1049
     30 ****       -35.9000  13.7572   4.7203 LP             1 <1>                0.0000
@<TRIPOS>BOND
    1    1    2 1     
    2    2    3 1     
    3    2    4 1     
    4    4    5 1     
    5    5    6 2     
    6    6    7 1     
    7    7    8 ar    
    8    8    9 ar    
    9    9   10 ar    
   10   10   11 1     
   11   10   12 ar    
   12   12   13 1     
   13   12   14 ar    
   14    2   14 1     
   15    7   14 ar    
   16    5   15 1     
   17   15   16 1     
   18   16   17 1     
   19   17   18 1     
   20   17   19 1     
   21    1   20 1     
   22    1   21 1     
   23    1   22 1     
   24    4   23 1     
   25    8   24 1     
   26    9   25 1     
   27   15   26 1     
   28   16   27 1     
   29   16   28 1     
   30   17   29 1     
   31    6   30 1     
@<TRIPOS>SUBSTRUCTURE
      1 ****           1
@<TRIPOS>SET
LONE_PAIRS      STATIC     ATOMS    <user>   **** ""
1 30
DONOR_HYDROGENS      STATIC     ATOMS    <user>   **** ""
2 23 26
ATOM$BLUE        STATIC     ATOMS    COLORGROUP SYSTEM
1 30
ATOM$RED        STATIC     ATOMS    COLORGROUP SYSTEM
2 23 26
@<TRIPOS>COMMENT
> <Gold.Version>
5.5

> <Gold.Id.Protein>
ID|ID_protein|mol2

> <Gold.Protein.ActiveResidues>
 LEU18   LEU52   SER53   ALA55   VAL56   ALA57   MET59   PRO60   PHE61   VAL62  
 SER63   VAL64   LEU67   TRP72   PHE78   CYS79   VAL81   PHE82   ILE83   ALA84  
 MET85   ASP86   VAL87   MET88   CYS89   CYS90   SER93   TRP131  THR138  LEU139 
 LEU142  PHE161  GLU222  GLU225  LEU229  LYS248  THR251  THR252  GLY254  ILE255 

> <Gold.Score>
     Score     S(PLP)   S(hbond)     S(cho)   S(metal)  DE(clash)   DE(tors)     intcor
     49.53     -49.63       0.00       0.00       0.00       0.00       0.05       0.00

> <Gold.PLP.Fitness>
49.5291

> <Gold.PLP.PLP>
-49.6317

> <Gold.PLP.part.hbond>
-0.3325

> <Gold.PLP.part.metal>
0.0000

> <Gold.PLP.part.buried>
-5.6152

> <Gold.PLP.part.nonpolar>
-43.3364

> <Gold.PLP.part.repulsive>
0.0915

> <Gold.PLP.ligand.clash>
0.0000

> <Gold.PLP.ligand.torsion>
0.0537

> <Gold.PLP.Chemscore.Hbond>
0.0000

> <Gold.PLP.Chemscore.CHOScore>
0.0000

> <Gold.PLP.Chemscore.Metal>
0.0000

> <Gold.PLP.Chemscore.Internal.Correction>
0.0049

