#       Name:                C:\Users\porto\OneDrive\projekt\beta2\ligandy\L_4ldo.pdb L_4ldo.pdb 1
#       Creating user name   student
#       Creation time:       Mon Apr 08 16:17:42 2019


#       File generated by GOLD software.
#

@<TRIPOS>MOLECULE
C:\Users\porto\OneDrive\projekt\beta2\ligandy\L_4ldo.pdb L_4ldo.pdb 1|4ldo|mol2|1|dock1
    33    33     1
SMALL
GASTEIGER


@<TRIPOS>ATOM
      1 C1         -29.4554  10.1403   7.6825 C.ar           1 <1>               -0.0143
      2 N1         -26.4686   8.9343   5.8924 N.3            1 <1>               -0.3162
      3 O1         -32.7227   8.4839   7.7880 O.3            1 <1>               -0.5033
      4 C2         -30.3998   9.1186   7.6392 C.ar           1 <1>               -0.0109
      5 O2         -33.4751  10.9559   8.1944 O.3            1 <1>               -0.5033
      6 C3         -31.7437   9.4282   7.8159 C.ar           1 <1>                0.1586
      7 O3         -27.6948   8.8459   8.4498 O.3            1 <1>               -0.3859
      8 C4         -32.1418  10.7390   8.0310 C.ar           1 <1>                0.1582
      9 C5         -31.2050  11.7642   8.0741 C.ar           1 <1>               -0.0162
     10 C6         -29.8586  11.4558   7.8989 C.ar           1 <1>               -0.0524
     11 C7         -28.1079   9.8385   7.5065 C.3            1 <1>                0.0927
     12 C8         -27.8719   9.3268   6.0840 C.3            1 <1>                0.0258
     13 C9         -25.6067  10.1196   5.9951 C.3            1 <1>               -0.0157
     14 HN1        -26.2057   8.2664   6.6025 H              1 <1>                0.1217
     15 HO1        -33.1112   8.3996   8.6616 H              1 <1>                0.2923
     16 H2         -30.0851   8.0995   7.4700 H              1 <1>                0.0659
     17 HO2        -33.8587  11.2381   7.3609 H              1 <1>                0.2923
     18 HO3        -27.7955   7.9730   8.0617 H              1 <1>                0.2103
     19 H5         -31.5255  12.7823   8.2419 H              1 <1>                0.0655
     20 H6         -29.1249  12.2471   7.9322 H              1 <1>                0.0622
     21 H7         -27.5191  10.7420   7.6612 H              1 <1>                0.0656
     22 H81        -28.5172   8.4693   5.8952 H              1 <1>                0.0453
     23 H82        -28.1310  10.1085   5.3700 H              1 <1>                0.0453
     24 H91        -24.5662   9.8267   5.8528 H              1 <1>                0.0388
     25 H92        -25.8885  10.8414   5.2284 H              1 <1>                0.0388
     26 H93        -25.7247  10.5711   6.9804 H              1 <1>                0.0388
     27 ****       -26.3607   8.5215   4.9880 LP             1 <1>                0.0000
     28 ****       -32.3314   7.6062   7.5112 LP             1 <1>                0.0000
     29 ****       -33.4288   8.7551   7.1339 LP             1 <1>                0.0000
     30 ****       -33.6150  11.6671   8.8833 LP             1 <1>                0.0000
     31 ****       -33.9159  10.1099   8.4945 LP             1 <1>                0.0000
     32 ****       -28.2600   8.9121   9.2721 LP             1 <1>                0.0000
     33 ****       -26.7359   8.9946   8.6915 LP             1 <1>                0.0000
@<TRIPOS>BOND
    1    1    4 ar    
    2    1   10 ar    
    3    1   11 1     
    4    2   12 1     
    5    2   13 1     
    6    2   14 1     
    7    3    6 1     
    8    3   15 1     
    9    4    6 ar    
   10    4   16 1     
   11    5    8 1     
   12    5   17 1     
   13    6    8 ar    
   14    7   11 1     
   15    7   18 1     
   16    8    9 ar    
   17    9   10 ar    
   18    9   19 1     
   19   10   20 1     
   20   11   12 1     
   21   11   21 1     
   22   12   22 1     
   23   12   23 1     
   24   13   24 1     
   25   13   25 1     
   26   13   26 1     
   27    2   27 1     
   28    3   28 1     
   29    3   29 1     
   30    5   30 1     
   31    5   31 1     
   32    7   32 1     
   33    7   33 1     
@<TRIPOS>SUBSTRUCTURE
      1 ****           1
@<TRIPOS>SET
LONE_PAIRS      STATIC     ATOMS    <user>   **** ""
7 27 28 29 30 31 32 33
DONOR_HYDROGENS      STATIC     ATOMS    <user>   **** ""
4 14 15 17 18
ATOM$BLUE        STATIC     ATOMS    COLORGROUP SYSTEM
7 27 28 29 30 31 32 33
ATOM$RED        STATIC     ATOMS    COLORGROUP SYSTEM
4 14 15 17 18
@<TRIPOS>COMMENT
> <Gold.Version>
5.5

> <Gold.Id.Protein>
unknown|dok_beta2|pdb

> <Gold.Protein.RotatedTorsions>
[ 4175 4166 4165 4163 ] final  -86.02 input -179.98 | X-H torsion
[ 1294 1290 1288 1285 ] final -174.21 input -179.99 | X-H torsion
[ 4033 4024 4023 4021 ] final  122.49 input  179.98 | X-H torsion
[ 1412 1408 1406 1403 ] final -129.39 input -179.99 | X-H torsion
[ 2830 2825 2824 2821 ] final   93.44 input -179.98 | X-H torsion
[ 2723 2714 2713 2711 ] final -158.51 input -179.98 | X-H torsion
[ 2773 2768 2767 2764 ] final   21.48 input  180.00 | X-H torsion

> <Gold.Protein.ActiveResidues>
 TRP109  THR110  ASP113  VAL114  VAL117  THR118  PHE193  TYR199  SER203  SER207 
 PHE208  TRP286  PHE289  PHE290  ASN293  TYR308  ASN312  TYR316 

> <Gold.Protein.RotatedAtoms>
  -33.9424    3.6167    1.7266 H   0  0  0  0  0  0  0  0  0  0  0  0  # atno 1294 bound_to 1290
  -26.6203   14.8985    2.1932 H   0  0  0  0  0  0  0  0  0  0  0  0  # atno 1412 bound_to 1408
  -26.6623    7.6962    2.9276 H   0  0  0  0  0  0  0  0  0  0  0  0  # atno 2723 bound_to 2714
  -23.6712   10.8684    2.7866 H   0  0  0  0  0  0  0  0  0  0  0  0  # atno 2773 bound_to 2768
  -23.6979   12.8800    3.0777 H   0  0  0  0  0  0  0  0  0  0  0  0  # atno 2830 bound_to 2825
  -28.7526    7.0589   11.3203 H   0  0  0  0  0  0  0  0  0  0  0  0  # atno 4033 bound_to 4024
  -36.3810    8.5589    8.4960 H   0  0  0  0  0  0  0  0  0  0  0  0  # atno 4175 bound_to 4166
  -36.5870    9.3601    7.1261 LP  0  0  0  0  0  0  0  0  0  0  0  0  # atno 4597 bound_to 4166
  -37.8058    8.4853    7.7711 LP  0  0  0  0  0  0  0  0  0  0  0  0  # atno 4598 bound_to 4166
  -35.3113    4.2197    1.1576 LP  0  0  0  0  0  0  0  0  0  0  0  0  # atno 4603 bound_to 1290
  -34.7557    4.6584    2.6292 LP  0  0  0  0  0  0  0  0  0  0  0  0  # atno 4604 bound_to 1290
  -29.1973    5.7177   10.5682 LP  0  0  0  0  0  0  0  0  0  0  0  0  # atno 4607 bound_to 4024
  -27.7615    5.8021   11.3416 LP  0  0  0  0  0  0  0  0  0  0  0  0  # atno 4608 bound_to 4024
  -28.1675   14.5247    2.0261 LP  0  0  0  0  0  0  0  0  0  0  0  0  # atno 4611 bound_to 1408
  -27.6073   15.1466    3.4283 LP  0  0  0  0  0  0  0  0  0  0  0  0  # atno 4612 bound_to 1408
  -23.7645   14.1321    2.0837 LP  0  0  0  0  0  0  0  0  0  0  0  0  # atno 4613 bound_to 2825
  -25.1194   13.3133    2.4845 LP  0  0  0  0  0  0  0  0  0  0  0  0  # atno 4614 bound_to 2825

> <Gold.Score>
     Score         DG    S(hbond)    S(metal)    S(lipo)     H(rot)  DE(clash)    DE(int)     intcor
     26.44     -26.73       3.72        0.00     148.12       3.32       0.22       0.06       0.00

> <Gold.Chemscore.Fitness>
26.4424

> <Gold.Chemscore.DG>
-26.7260

> <Gold.Chemscore.ZeroCoef>
-5.4800

> <Gold.Chemscore.Hbond>
3.7190

> <Gold.Chemscore.Metal>
0.0000

> <Gold.Chemscore.Lipo>
148.1191

> <Gold.Chemscore.Internal_Hbond>
0.0000

> <Gold.Chemscore.DEClash>
0.2193

> <Gold.Chemscore.DEInternal>
0.0643

> <Gold.Chemscore.Rot>
3.3225

> <Gold.Chemscore.Internal.Correction>
0.0039

> <Gold.Chemscore.Hbonds>
donor molecule, donor type, donor heavy atom, donor atom, acceptor molecule, acceptor atom, score
      L1  H     3    15       P1  4098  1.00
      L1  H     5    17       P1  1334  0.99
      P1  H  4097  4104       L1     5  0.99
      P1  H  3760  3767       L1     7  0.74

> <Gold.Chemscore.Hbond.Weighted>
-12.4215

> <Gold.Chemscore.Metal.Weighted>
-0.0000

> <Gold.Chemscore.Lipo.Weighted>
-17.3299

> <Gold.Chemscore.Internal_Hbond.Weighted>
0.0000

> <Gold.Chemscore.DEClash.Weighted>
0.2193

> <Gold.Chemscore.DEInternal.Weighted>
0.0643

> <Gold.Chemscore.Rot.Weighted>
8.5055

> <Gold.Chemscore.Internal.Correction.Weighted>
0.0039

