#       Name:                C:\Users\porto\OneDrive\projekt\beta1\ligandy\L_4amj.pdb L_4amj.pdb 1
#       Creating user name   student
#       Creation time:       Mon Apr 01 15:37:04 2019


#       File generated by GOLD software.
#

@<TRIPOS>MOLECULE
C:\Users\porto\OneDrive\projekt\beta1\ligandy\L_4amj.pdb L_4amj.pdb 1|4amj|mol2|1|dock4
    65    68     1
SMALL
GASTEIGER


@<TRIPOS>ATOM
      1 C1         -23.5144   8.0041  16.8152 C.3            1 <1>                0.1015
      2 N1         -23.9531   5.5665  10.3945 N.pl3          1 <1>               -0.3540
      3 O1         -22.2852   7.3622  16.4699 O.3            1 <1>               -0.3872
      4 C2         -24.1995   8.3779  15.5225 C.3            1 <1>                0.1166
      5 N2         -24.4158   9.6368  18.3864 N.3            1 <1>               -0.3102
      6 O2         -23.9537   7.2982  14.6072 O.3            1 <1>               -0.4887
      7 C3         -24.1604   7.5144  13.2833 C.ar           1 <1>                0.1303
      8 O3         -24.8309  11.6050  21.4333 O.3            1 <1>               -0.4870
      9 C4         -23.9396   6.5115  12.3629 C.ar           1 <1>                0.0490
     10 O4         -24.6004  12.7698  23.9415 O.3            1 <1>               -0.4915
     11 C5         -23.6507   5.1689  12.5259 C.ar           1 <1>                0.0109
     12 C6         -24.1455   6.7459  11.0333 C.ar           1 <1>                0.0510
     13 C7         -23.6112   4.5745  11.2835 C.ar           1 <1>                0.0476
     14 C8         -23.3578   4.4347  13.6495 C.ar           1 <1>               -0.0519
     15 C9         -23.3183   3.2259  11.1722 C.ar           1 <1>               -0.0378
     16 C10        -22.9863   2.4551  12.3019 C.ar           1 <1>               -0.0598
     17 C11        -23.0163   3.0557  13.5336 C.ar           1 <1>               -0.0611
     18 C12        -24.5004   7.9949  10.6100 C.ar           1 <1>               -0.0375
     19 C13        -24.6704   9.0003  11.4966 C.ar           1 <1>               -0.0563
     20 C14        -24.4891   8.7828  12.8527 C.ar           1 <1>               -0.0192
     21 C15        -23.2274   9.3085  17.5592 C.3            1 <1>                0.0253
     22 C16        -24.0321  10.6782  19.4063 C.3            1 <1>                0.0302
     23 C17        -25.2749  10.9753  20.2297 C.3            1 <1>                0.1022
     24 C18        -24.3047  10.8732  22.5074 C.ar           1 <1>                0.1619
     25 C19        -24.1832  11.4533  23.7653 C.ar           1 <1>                0.1615
     26 C20        -23.6780  10.7242  24.8550 C.ar           1 <1>               -0.0163
     27 C21        -23.2408   9.4286  24.6876 C.ar           1 <1>               -0.0581
     28 C22        -23.3587   8.8470  23.4273 C.ar           1 <1>               -0.0581
     29 C23        -23.9010   9.5681  22.3578 C.ar           1 <1>               -0.0163
     30 C24        -24.7954  13.2636  25.2794 C.3            1 <1>                0.0790
     31 H1         -24.1437   7.3446  17.4129 H              1 <1>                0.0640
     32 HN1        -24.0667   5.5101   9.3926 H              1 <1>                0.1659
     33 HO1        -21.5920   7.6571  17.0640 H              1 <1>                0.2100
     34 H21        -23.7576   9.2932  15.1297 H              1 <1>                0.0723
     35 H22        -25.2719   8.4705  15.6941 H              1 <1>                0.0723
     36 HN2        -24.7410   8.8061  18.8592 H              1 <1>                0.1221
     37 H8         -23.3862   4.9020  14.6227 H              1 <1>                0.0624
     38 H9         -23.3418   2.7467  10.2052 H              1 <1>                0.0638
     39 H10        -22.7159   1.4153  12.1862 H              1 <1>                0.0618
     40 H11        -22.7799   2.4815  14.4176 H              1 <1>                0.0618
     41 H12        -24.6484   8.1870   9.5577 H              1 <1>                0.0638
     42 H13        -24.9504   9.9839  11.1500 H              1 <1>                0.0619
     43 H14        -24.6003   9.5837  13.5685 H              1 <1>                0.0654
     44 H151       -23.0555  10.1071  16.8382 H              1 <1>                0.0450
     45 H152       -22.3604   9.1738  18.2059 H              1 <1>                0.0450
     46 H161       -23.7102  11.5856  18.8950 H              1 <1>                0.0457
     47 H162       -23.2534  10.2797  20.0565 H              1 <1>                0.0457
     48 H171       -25.9195  11.6606  19.6789 H              1 <1>                0.0709
     49 H172       -25.7798  10.0408  20.4750 H              1 <1>                0.0709
     50 H20        -23.6299  11.1789  25.8328 H              1 <1>                0.0655
     51 H21        -22.8185   8.8894  25.5226 H              1 <1>                0.0619
     52 H22        -23.0303   7.8303  23.2688 H              1 <1>                0.0619
     53 H23        -23.9996   9.0789  21.4004 H              1 <1>                0.0655
     54 H241       -25.1197  14.3032  25.2397 H              1 <1>                0.0660
     55 H242       -25.5561  12.6655  25.7803 H              1 <1>                0.0660
     56 H243       -23.8586  13.1963  25.8321 H              1 <1>                0.0660
     57 ****       -22.0398   7.5963  15.5292 LP             1 <1>                0.0000
     58 ****       -22.3930   6.3712  16.5495 LP             1 <1>                0.0000
     59 ****       -25.1461   9.9886  17.8008 LP             1 <1>                0.0000
     60 ****       -24.5461   6.5397  14.8789 LP             1 <1>                0.0000
     61 ****       -22.9968   7.0295  14.7171 LP             1 <1>                0.0000
     62 ****       -24.1202  12.2545  21.1631 LP             1 <1>                0.0000
     63 ****       -25.6186  12.1040  21.7946 LP             1 <1>                0.0000
     64 ****       -23.9147  13.3554  23.5094 LP             1 <1>                0.0000
     65 ****       -25.4725  12.8681  23.4622 LP             1 <1>                0.0000
@<TRIPOS>BOND
    1    1    4 1     
    2    1   21 1     
    3    1    3 1     
    4    1   31 1     
    5    2   12 ar    
    6    2   13 ar    
    7    2   32 1     
    8    3   33 1     
    9    4    6 1     
   10    4   34 1     
   11    4   35 1     
   12    5   22 1     
   13    5   21 1     
   14    5   36 1     
   15    6    7 1     
   16    7    9 ar    
   17    7   20 ar    
   18    8   24 1     
   19    8   23 1     
   20    9   11 ar    
   21    9   12 ar    
   22   10   30 1     
   23   10   25 1     
   24   11   13 ar    
   25   11   14 ar    
   26   12   18 ar    
   27   13   15 ar    
   28   14   17 ar    
   29   14   37 1     
   30   15   16 ar    
   31   15   38 1     
   32   16   17 ar    
   33   16   39 1     
   34   17   40 1     
   35   18   19 ar    
   36   18   41 1     
   37   19   20 ar    
   38   19   42 1     
   39   20   43 1     
   40   21   44 1     
   41   21   45 1     
   42   22   23 1     
   43   22   46 1     
   44   22   47 1     
   45   23   48 1     
   46   23   49 1     
   47   24   25 ar    
   48   24   29 ar    
   49   25   26 ar    
   50   26   27 ar    
   51   26   50 1     
   52   27   28 ar    
   53   27   51 1     
   54   28   29 ar    
   55   28   52 1     
   56   29   53 1     
   57   30   54 1     
   58   30   55 1     
   59   30   56 1     
   60    3   57 1     
   61    3   58 1     
   62    5   59 1     
   63    6   60 1     
   64    6   61 1     
   65    8   62 1     
   66    8   63 1     
   67   10   64 1     
   68   10   65 1     
@<TRIPOS>SUBSTRUCTURE
      1 ****           1
@<TRIPOS>SET
LONE_PAIRS      STATIC     ATOMS    <user>   **** ""
9 57 58 59 60 61 62 63 64 65
DONOR_HYDROGENS      STATIC     ATOMS    <user>   **** ""
3 32 33 36
ATOM$BLUE        STATIC     ATOMS    COLORGROUP SYSTEM
9 57 58 59 60 61 62 63 64 65
ATOM$RED        STATIC     ATOMS    COLORGROUP SYSTEM
3 32 33 36
@<TRIPOS>COMMENT
> <Gold.Version>
5.5

> <Gold.Id.Protein>
unknown|bialko_beta1|pdb

> <Gold.Protein.ActiveResidues>
 ALA86   ASP87   VAL90   VAL94   VAL95   GLY98   ALA99   LEU101  VAL102  CYS114 
 GLU115  TRP117  THR118  SER119  LEU120  ASP121  VAL122  CYS124  VAL125  THR126 
 SER128  SER173  PHE174  ILE177  CYS199  ASP200  PHE201  TYR207  SER215  PHE299 
 TRP303  PHE306  PHE307  ASN310  PHE325  VAL326  ASN329  TRP330  GLY332  TYR333 
 SER336 

> <Gold.Score>
     Score     S(PLP)   S(hbond)     S(cho)   S(metal)  DE(clash)   DE(tors)     intcor
     90.71     -90.03       1.00       0.00       0.00       1.23       1.23       1.36

> <Gold.PLP.Fitness>
90.7089

> <Gold.PLP.PLP>
-90.0329

> <Gold.PLP.part.hbond>
-1.4767

> <Gold.PLP.part.metal>
0.0000

> <Gold.PLP.part.buried>
-10.7253

> <Gold.PLP.part.nonpolar>
-79.8166

> <Gold.PLP.part.repulsive>
0.0199

> <Gold.PLP.ligand.clash>
1.2334

> <Gold.PLP.ligand.torsion>
1.2258

> <Gold.PLP.Chemscore.Hbond>
1.0000

> <Gold.PLP.Chemscore.CHOScore>
0.0000

> <Gold.PLP.Chemscore.Metal>
0.0000

> <Gold.Chemscore.Hbonds>
donor molecule, donor type, donor heavy atom, donor atom, acceptor molecule, acceptor atom, score
      L1  H     5    36       P1  2066  1.00

> <Gold.PLP.Chemscore.Internal.Correction>
1.3611

