#       Name:                C:\Users\porto\OneDrive\projekt\beta1\ligandy\L_4amj.pdb L_4amj.pdb 1
#       Creating user name   student
#       Creation time:       Mon Apr 08 15:25:07 2019


#       File generated by GOLD software.
#

@<TRIPOS>MOLECULE
C:\Users\porto\OneDrive\projekt\beta1\ligandy\L_4amj.pdb L_4amj.pdb 1|4amj|mol2|1|dock45
    65    68     1
SMALL
GASTEIGER


@<TRIPOS>ATOM
      1 C1         -23.0894   8.5739  16.9794 C.3            1 <1>                0.1015
      2 N1         -23.6070   3.2642  13.3099 N.pl3          1 <1>               -0.3540
      3 O1         -21.9424   8.6289  16.1289 O.3            1 <1>               -0.3872
      4 C2         -24.2923   8.3648  16.0909 C.3            1 <1>                0.1166
      5 N2         -24.5588   9.8665  18.4344 N.3            1 <1>               -0.3102
      6 O2         -23.8764   7.4641  15.0517 O.3            1 <1>               -0.4887
      7 C3         -24.0144   6.1300  15.2602 C.ar           1 <1>                0.1303
      8 O3         -25.4845  11.1281  21.7471 O.3            1 <1>               -0.4870
      9 C4         -23.8152   5.2323  14.2326 C.ar           1 <1>                0.0490
     10 O4         -24.9510  12.3597  24.1760 O.3            1 <1>               -0.4915
     11 C5         -23.3336   5.4059  12.9478 C.ar           1 <1>                0.0109
     12 C6         -23.9642   3.8932  14.4557 C.ar           1 <1>                0.0510
     13 C7         -23.2436   4.1714  12.3424 C.ar           1 <1>                0.0476
     14 C8         -23.0281   6.5431  12.2404 C.ar           1 <1>               -0.0519
     15 C9         -22.8033   4.0749  11.0333 C.ar           1 <1>               -0.0378
     16 C10        -22.5107   5.2235  10.2746 C.ar           1 <1>               -0.0598
     17 C11        -22.6136   6.4491  10.8798 C.ar           1 <1>               -0.0611
     18 C12        -24.3807   3.4498  15.6785 C.ar           1 <1>               -0.0375
     19 C13        -24.6288   4.3225  16.6798 C.ar           1 <1>               -0.0563
     20 C14        -24.4641   5.6842  16.4854 C.ar           1 <1>               -0.0192
     21 C15        -23.2821   9.9198  17.6784 C.3            1 <1>                0.0253
     22 C16        -24.4435  10.7419  19.6559 C.3            1 <1>                0.0302
     23 C17        -25.7222  10.5597  20.4576 C.3            1 <1>                0.1022
     24 C18        -24.7446  10.4586  22.7322 C.ar           1 <1>                0.1619
     25 C19        -24.4710  11.0726  23.9494 C.ar           1 <1>                0.1615
     26 C20        -23.7494  10.4047  24.9532 C.ar           1 <1>               -0.0163
     27 C21        -23.2498   9.1401  24.7320 C.ar           1 <1>               -0.0581
     28 C22        -23.5203   8.5248  23.5118 C.ar           1 <1>               -0.0581
     29 C23        -24.2746   9.1826  22.5339 C.ar           1 <1>               -0.0163
     30 C24        -24.7021  12.9797  25.4509 C.3            1 <1>                0.0790
     31 H1         -22.9971   7.7667  17.7061 H              1 <1>                0.0640
     32 HN1        -23.6326   2.2560  13.2578 H              1 <1>                0.1659
     33 HO1        -21.1497   8.4877  16.6508 H              1 <1>                0.2100
     34 H21        -24.5863   9.3165  15.6489 H              1 <1>                0.0723
     35 H22        -25.0945   7.9057  16.6686 H              1 <1>                0.0723
     36 HN2        -24.7466   8.9158  18.7179 H              1 <1>                0.1221
     37 H8         -23.1018   7.5106  12.7147 H              1 <1>                0.0624
     38 H9         -22.6791   3.1049  10.5760 H              1 <1>                0.0638
     39 H10        -22.2132   5.1268   9.2403 H              1 <1>                0.0618
     40 H11        -22.3801   7.3449  10.3229 H              1 <1>                0.0618
     41 H12        -24.5146   2.3925  15.8530 H              1 <1>                0.0638
     42 H13        -24.9584   3.9601  17.6422 H              1 <1>                0.0619
     43 H14        -24.6806   6.3926  17.2712 H              1 <1>                0.0654
     44 H151       -23.3353  10.7118  16.9321 H              1 <1>                0.0450
     45 H152       -22.4571  10.0905  18.3700 H              1 <1>                0.0450
     46 H161       -24.3536  11.7839  19.3484 H              1 <1>                0.0457
     47 H162       -23.5916  10.4195  20.2544 H              1 <1>                0.0457
     48 H171       -26.5358  11.0966  19.9694 H              1 <1>                0.0709
     49 H172       -25.9351   9.4959  20.5645 H              1 <1>                0.0709
     50 H20        -23.5827  10.8826  25.9067 H              1 <1>                0.0655
     51 H21        -22.6639   8.6502  25.4955 H              1 <1>                0.0619
     52 H22        -23.1469   7.5308  23.3138 H              1 <1>                0.0619
     53 H23        -24.4854   8.6672  21.6089 H              1 <1>                0.0655
     54 H241       -25.1417  13.9767  25.4625 H              1 <1>                0.0660
     55 H242       -25.1488  12.3773  26.2414 H              1 <1>                0.0660
     56 H243       -23.6274  13.0548  25.6152 H              1 <1>                0.0660
     57 ****       -21.8964   9.5258  15.6890 LP             1 <1>                0.0000
     58 ****       -22.0118   7.9177  15.4293 LP             1 <1>                0.0000
     59 ****       -25.3065  10.1901  17.8545 LP             1 <1>                0.0000
     60 ****       -22.9065   7.6379  14.8807 LP             1 <1>                0.0000
     61 ****       -24.4051   7.6918  14.2341 LP             1 <1>                0.0000
     62 ****       -25.0154  11.9966  21.5874 LP             1 <1>                0.0000
     63 ****       -26.3849  11.3038  22.1452 LP             1 <1>                0.0000
     64 ****       -24.5469  12.9509  23.4781 LP             1 <1>                0.0000
     65 ****       -25.9430  12.3289  24.0531 LP             1 <1>                0.0000
@<TRIPOS>BOND
    1    1    4 1     
    2    1   21 1     
    3    1    3 1     
    4    1   31 1     
    5    2   12 ar    
    6    2   13 ar    
    7    2   32 1     
    8    3   33 1     
    9    4    6 1     
   10    4   34 1     
   11    4   35 1     
   12    5   22 1     
   13    5   21 1     
   14    5   36 1     
   15    6    7 1     
   16    7    9 ar    
   17    7   20 ar    
   18    8   24 1     
   19    8   23 1     
   20    9   11 ar    
   21    9   12 ar    
   22   10   30 1     
   23   10   25 1     
   24   11   13 ar    
   25   11   14 ar    
   26   12   18 ar    
   27   13   15 ar    
   28   14   17 ar    
   29   14   37 1     
   30   15   16 ar    
   31   15   38 1     
   32   16   17 ar    
   33   16   39 1     
   34   17   40 1     
   35   18   19 ar    
   36   18   41 1     
   37   19   20 ar    
   38   19   42 1     
   39   20   43 1     
   40   21   44 1     
   41   21   45 1     
   42   22   23 1     
   43   22   46 1     
   44   22   47 1     
   45   23   48 1     
   46   23   49 1     
   47   24   25 ar    
   48   24   29 ar    
   49   25   26 ar    
   50   26   27 ar    
   51   26   50 1     
   52   27   28 ar    
   53   27   51 1     
   54   28   29 ar    
   55   28   52 1     
   56   29   53 1     
   57   30   54 1     
   58   30   55 1     
   59   30   56 1     
   60    3   57 1     
   61    3   58 1     
   62    5   59 1     
   63    6   60 1     
   64    6   61 1     
   65    8   62 1     
   66    8   63 1     
   67   10   64 1     
   68   10   65 1     
@<TRIPOS>SUBSTRUCTURE
      1 ****           1
@<TRIPOS>SET
LONE_PAIRS      STATIC     ATOMS    <user>   **** ""
9 57 58 59 60 61 62 63 64 65
DONOR_HYDROGENS      STATIC     ATOMS    <user>   **** ""
3 32 33 36
ATOM$BLUE        STATIC     ATOMS    COLORGROUP SYSTEM
9 57 58 59 60 61 62 63 64 65
ATOM$RED        STATIC     ATOMS    COLORGROUP SYSTEM
3 32 33 36
@<TRIPOS>COMMENT
> <Gold.Version>
5.5

> <Gold.Id.Protein>
unknown|bialko_beta1|pdb

> <Gold.Protein.ActiveResidues>
 ALA86   ASP87   VAL90   VAL94   VAL95   GLY98   ALA99   LEU101  VAL102  CYS114 
 GLU115  TRP117  THR118  SER119  LEU120  ASP121  VAL122  CYS124  VAL125  THR126 
 SER128  SER173  PHE174  ILE177  CYS199  ASP200  PHE201  TYR207  SER215  PHE299 
 TRP303  PHE306  PHE307  ASN310  PHE325  VAL326  ASN329  TRP330  GLY332  TYR333 
 SER336 

> <Gold.Score>
     Score         DG    S(hbond)    S(metal)    S(lipo)     H(rot)  DE(clash)    DE(int)     intcor
     44.10     -44.83       0.99        0.00     371.84       2.91       0.15       0.58       0.24

> <Gold.Chemscore.Fitness>
44.0987

> <Gold.Chemscore.DG>
-44.8342

> <Gold.Chemscore.ZeroCoef>
-5.4800

> <Gold.Chemscore.Hbond>
0.9886

> <Gold.Chemscore.Metal>
0.0000

> <Gold.Chemscore.Lipo>
371.8371

> <Gold.Chemscore.Internal_Hbond>
0.0000

> <Gold.Chemscore.DEClash>
0.1542

> <Gold.Chemscore.DEInternal>
0.5813

> <Gold.Chemscore.Rot>
2.9112

> <Gold.Chemscore.Internal.Correction>
0.2438

> <Gold.Chemscore.Hbonds>
donor molecule, donor type, donor heavy atom, donor atom, acceptor molecule, acceptor atom, score
      L1  H     5    36       P1  2066  0.99

> <Gold.Chemscore.Hbond.Weighted>
-3.3019

> <Gold.Chemscore.Metal.Weighted>
-0.0000

> <Gold.Chemscore.Lipo.Weighted>
-43.5049

> <Gold.Chemscore.Internal_Hbond.Weighted>
0.0000

> <Gold.Chemscore.DEClash.Weighted>
0.1542

> <Gold.Chemscore.DEInternal.Weighted>
0.5813

> <Gold.Chemscore.Rot.Weighted>
7.4527

> <Gold.Chemscore.Internal.Correction.Weighted>
0.2438

