#       Name:                C:\Users\porto\OneDrive\projekt\beta1\ligandy\L_6h7j.pdb L_6h7j.pdb 1
#       Creating user name   student
#       Creation time:       Mon Apr 08 14:36:55 2019


#       File generated by GOLD software.
#

@<TRIPOS>MOLECULE
C:\Users\porto\OneDrive\projekt\beta1\ligandy\L_6h7j.pdb L_6h7j.pdb 1|6h7j|mol2|1|dock1
    39    39     1
SMALL
GASTEIGER


@<TRIPOS>ATOM
      1 CAE        -23.8034   6.5406  16.2763 C.3            1 <1>                0.0927
      2 CAF        -22.5292   7.3580  16.5221 C.3            1 <1>                0.0263
      3 CAG        -21.6906   9.4063  17.5944 C.3            1 <1>                0.0021
      4 CAH        -23.5566   5.4962  15.1793 C.ar           1 <1>               -0.0143
      5 CAI        -22.1393  10.5620  18.5004 C.3            1 <1>               -0.0499
      6 CAJ        -20.3334   8.8506  18.0577 C.3            1 <1>               -0.0499
      7 CAK        -23.5430   5.8999  13.8427 C.ar           1 <1>               -0.0109
      8 CAL        -23.3519   4.1485  15.4891 C.ar           1 <1>               -0.0524
      9 CAM        -23.3101   4.9776  12.8235 C.ar           1 <1>                0.1586
     10 CAN        -23.1326   3.2194  14.4740 C.ar           1 <1>               -0.0162
     11 CAO        -23.1115   3.6355  13.1450 C.ar           1 <1>                0.1582
     12 NAD        -22.7616   8.3839  17.5637 N.3            1 <1>               -0.3110
     13 OAA        -24.1877   5.9247  17.5017 O.3            1 <1>               -0.3859
     14 OAB        -23.2896   5.3820  11.5239 O.3            1 <1>               -0.5033
     15 OAC        -22.8985   2.7290  12.1666 O.3            1 <1>               -0.5033
     16 HAE        -24.5987   7.2129  15.9529 H              1 <1>                0.0656
     17 HAF1       -22.2253   7.8443  15.5955 H              1 <1>                0.0453
     18 HAF2       -21.7270   6.6924  16.8410 H              1 <1>                0.0453
     19 HAG        -21.5685   9.7971  16.5844 H              1 <1>                0.0455
     20 HAI1       -23.1019  10.9414  18.1568 H              1 <1>                0.0245
     21 HAI2       -22.2360  10.2046  19.5255 H              1 <1>                0.0245
     22 HAI3       -21.3993  11.3612  18.4633 H              1 <1>                0.0245
     23 HAJ1       -19.5933   9.6504  18.0572 H              1 <1>                0.0245
     24 HAJ2       -20.4310   8.4461  19.0650 H              1 <1>                0.0245
     25 HAJ3       -20.0131   8.0603  17.3789 H              1 <1>                0.0245
     26 HAK        -23.7138   6.9353  13.5901 H              1 <1>                0.0659
     27 HAL        -23.3632   3.8229  16.5191 H              1 <1>                0.0622
     28 HAN        -22.9788   2.1785  14.7181 H              1 <1>                0.0655
     29 HNAD       -23.6377   8.8536  17.3841 H              1 <1>                0.1223
     30 HOAA       -24.3350   6.5998  18.1675 H              1 <1>                0.2103
     31 HOAB       -23.1178   4.6272  10.9566 H              1 <1>                0.2923
     32 HOAC       -22.7820   1.8593  12.5553 H              1 <1>                0.2923
     33 ****       -22.7747   7.9106  18.4445 LP             1 <1>                0.0000
     34 ****       -23.4616   5.3086  17.8070 LP             1 <1>                0.0000
     35 ****       -25.0302   5.4041  17.3631 LP             1 <1>                0.0000
     36 ****       -22.5693   6.0642  11.3984 LP             1 <1>                0.0000
     37 ****       -24.1740   5.7835  11.2858 LP             1 <1>                0.0000
     38 ****       -22.0762   2.9781  11.6548 LP             1 <1>                0.0000
     39 ****       -23.6844   2.7151  11.5484 LP             1 <1>                0.0000
@<TRIPOS>BOND
    1    1    4 1     
    2    1   13 1     
    3    1    2 1     
    4    1   16 1     
    5    2   12 1     
    6    2   17 1     
    7    2   18 1     
    8    3    6 1     
    9    3   12 1     
   10    3    5 1     
   11    3   19 1     
   12    4    7 ar    
   13    4    8 ar    
   14    5   20 1     
   15    5   21 1     
   16    5   22 1     
   17    6   23 1     
   18    6   24 1     
   19    6   25 1     
   20    7    9 ar    
   21    7   26 1     
   22    8   10 ar    
   23    8   27 1     
   24    9   14 1     
   25    9   11 ar    
   26   10   11 ar    
   27   10   28 1     
   28   11   15 1     
   29   12   29 1     
   30   13   30 1     
   31   14   31 1     
   32   15   32 1     
   33   12   33 1     
   34   13   34 1     
   35   13   35 1     
   36   14   36 1     
   37   14   37 1     
   38   15   38 1     
   39   15   39 1     
@<TRIPOS>SUBSTRUCTURE
      1 ****           1
@<TRIPOS>SET
LONE_PAIRS      STATIC     ATOMS    <user>   **** ""
7 33 34 35 36 37 38 39
DONOR_HYDROGENS      STATIC     ATOMS    <user>   **** ""
4 29 30 31 32
ATOM$BLUE        STATIC     ATOMS    COLORGROUP SYSTEM
7 33 34 35 36 37 38 39
ATOM$RED        STATIC     ATOMS    COLORGROUP SYSTEM
4 29 30 31 32
@<TRIPOS>COMMENT
> <Gold.Version>
5.5

> <Gold.Id.Protein>
unknown|bialko_beta1|pdb

> <Gold.Protein.ActiveResidues>
 ALA86   ASP87   VAL90   VAL94   VAL95   GLY98   ALA99   LEU101  VAL102  CYS114 
 GLU115  TRP117  THR118  SER119  LEU120  ASP121  VAL122  CYS124  VAL125  THR126 
 SER128  SER173  PHE174  ILE177  CYS199  ASP200  PHE201  TYR207  SER215  PHE299 
 TRP303  PHE306  PHE307  ASN310  PHE325  VAL326  ASN329  TRP330  GLY332  TYR333 
 SER336 

> <Gold.Score>
     Score     S(PLP)   S(hbond)     S(cho)   S(metal)  DE(clash)   DE(tors)     intcor
     51.67     -48.88       0.93       0.00       0.00       0.00       0.00       0.00

> <Gold.PLP.Fitness>
51.6661

> <Gold.PLP.PLP>
-48.8821

> <Gold.PLP.part.hbond>
-2.0000

> <Gold.PLP.part.metal>
0.0000

> <Gold.PLP.part.buried>
-6.1944

> <Gold.PLP.part.nonpolar>
-40.4802

> <Gold.PLP.part.repulsive>
0.0000

> <Gold.PLP.ligand.clash>
0.0000

> <Gold.PLP.ligand.torsion>
0.0000

> <Gold.PLP.Chemscore.Hbond>
0.9280

> <Gold.PLP.Chemscore.CHOScore>
0.0000

> <Gold.PLP.Chemscore.Metal>
0.0000

> <Gold.Chemscore.Hbonds>
donor molecule, donor type, donor heavy atom, donor atom, acceptor molecule, acceptor atom, score
      L1  H    13    30       P1  2066  0.93

> <Gold.PLP.Chemscore.Internal.Correction>
0.0000

