#       Name:                C:\Users\porto\OneDrive\projekt\beta1\ligandy\L_6h7m.pdb L_6h7m.pdb 1
#       Creating user name   student
#       Creation time:       Mon Apr 01 15:38:24 2019


#       File generated by GOLD software.
#

@<TRIPOS>MOLECULE
C:\Users\porto\OneDrive\projekt\beta1\ligandy\L_6h7m.pdb L_6h7m.pdb 1|6h7m|mol2|1|dock2
    45    45     1
SMALL
GASTEIGER


@<TRIPOS>ATOM
      1 C1         -23.6356   6.6690  16.5894 C.3            1 <1>                0.0926
      2 N1         -22.9140   8.9546  17.1622 N.3            1 <1>               -0.3086
      3 O1         -23.0311   3.3055  12.0511 O.3            1 <1>               -0.5064
      4 C2         -23.3445   6.2340  11.6186 C.3            1 <1>                0.0727
      5 O2         -22.1035   6.0773  10.9075 O.3            1 <1>               -0.3903
      6 C3         -22.5335   7.7193  16.4982 C.3            1 <1>                0.0266
      7 O3         -23.6093   6.0047  17.8588 O.3            1 <1>               -0.3859
      8 C4         -22.0924   9.5418  18.2178 C.3            1 <1>                0.0108
      9 C5         -20.6028   9.3883  17.8311 C.3            1 <1>               -0.0473
     10 C6         -22.3919   8.8502  19.5617 C.3            1 <1>               -0.0473
     11 C7         -22.4765  11.0278  18.3225 C.3            1 <1>               -0.0473
     12 C8         -23.4781   5.7626  15.4137 C.ar           1 <1>               -0.0174
     13 C9         -23.3274   4.3806  15.5483 C.ar           1 <1>               -0.0526
     14 C10        -23.1856   3.5653  14.4225 C.ar           1 <1>               -0.0195
     15 C11        -23.1748   4.1111  13.1342 C.ar           1 <1>                0.1222
     16 C12        -23.3243   5.5761  12.9807 C.ar           1 <1>                0.0195
     17 C13        -23.4711   6.3452  14.1330 C.ar           1 <1>               -0.0472
     18 H1         -24.5943   7.1787  16.4956 H              1 <1>                0.0656
     19 HN1        -23.8321   8.7439  17.5266 H              1 <1>                0.1225
     20 HO1        -22.1053   3.0775  11.9420 H              1 <1>                0.2921
     21 H21        -23.5650   7.2951  11.7322 H              1 <1>                0.0608
     22 H22        -24.1577   5.8143  11.0260 H              1 <1>                0.0608
     23 HO2        -21.3771   6.0382  11.5342 H              1 <1>                0.2098
     24 H31        -22.3128   7.9244  15.4507 H              1 <1>                0.0453
     25 H32        -21.6226   7.3290  16.9516 H              1 <1>                0.0453
     26 HO3        -24.2183   6.4391  18.4606 H              1 <1>                0.2103
     27 H51        -19.9775   9.8228  18.6109 H              1 <1>                0.0247
     28 H52        -20.3622   8.3305  17.7206 H              1 <1>                0.0247
     29 H53        -20.4170   9.9031  16.8886 H              1 <1>                0.0247
     30 H61        -21.7757   9.2933  20.3441 H              1 <1>                0.0247
     31 H62        -23.4448   8.9811  19.8119 H              1 <1>                0.0247
     32 H63        -22.1678   7.7862  19.4815 H              1 <1>                0.0247
     33 H71        -21.8825  11.5030  19.1024 H              1 <1>                0.0247
     34 H72        -22.2850  11.5207  17.3692 H              1 <1>                0.0247
     35 H73        -23.5350  11.1133  18.5691 H              1 <1>                0.0247
     36 H9         -23.3199   3.9313  16.5302 H              1 <1>                0.0622
     37 H10        -23.0820   2.4964  14.5398 H              1 <1>                0.0654
     38 H13        -23.5817   7.4140  14.0253 H              1 <1>                0.0626
     39 ****       -22.8210   9.6751  16.4750 LP             1 <1>                0.0000
     40 ****       -23.3548   3.7838  11.2348 LP             1 <1>                0.0000
     41 ****       -23.5664   2.4712  12.1830 LP             1 <1>                0.0000
     42 ****       -21.9714   6.8548  10.2926 LP             1 <1>                0.0000
     43 ****       -22.1294   5.2315  10.3745 LP             1 <1>                0.0000
     44 ****       -22.6839   6.0433  18.2358 LP             1 <1>                0.0000
     45 ****       -23.8816   5.0498  17.7408 LP             1 <1>                0.0000
@<TRIPOS>BOND
    1    1    6 1     
    2    1    7 1     
    3    1   12 1     
    4    1   18 1     
    5    2    8 1     
    6    2    6 1     
    7    2   19 1     
    8    3   15 1     
    9    3   20 1     
   10    4   16 1     
   11    4    5 1     
   12    4   21 1     
   13    4   22 1     
   14    5   23 1     
   15    6   24 1     
   16    6   25 1     
   17    7   26 1     
   18    8    9 1     
   19    8   10 1     
   20    8   11 1     
   21    9   27 1     
   22    9   28 1     
   23    9   29 1     
   24   10   30 1     
   25   10   31 1     
   26   10   32 1     
   27   11   33 1     
   28   11   34 1     
   29   11   35 1     
   30   12   13 ar    
   31   12   17 ar    
   32   13   14 ar    
   33   13   36 1     
   34   14   15 ar    
   35   14   37 1     
   36   15   16 ar    
   37   16   17 ar    
   38   17   38 1     
   39    2   39 1     
   40    3   40 1     
   41    3   41 1     
   42    5   42 1     
   43    5   43 1     
   44    7   44 1     
   45    7   45 1     
@<TRIPOS>SUBSTRUCTURE
      1 ****           1
@<TRIPOS>SET
LONE_PAIRS      STATIC     ATOMS    <user>   **** ""
7 39 40 41 42 43 44 45
DONOR_HYDROGENS      STATIC     ATOMS    <user>   **** ""
4 19 20 23 26
ATOM$BLUE        STATIC     ATOMS    COLORGROUP SYSTEM
7 39 40 41 42 43 44 45
ATOM$RED        STATIC     ATOMS    COLORGROUP SYSTEM
4 19 20 23 26
@<TRIPOS>COMMENT
> <Gold.Version>
5.5

> <Gold.Id.Protein>
unknown|bialko_beta1|pdb

> <Gold.Protein.ActiveResidues>
 ALA86   ASP87   VAL90   VAL94   VAL95   GLY98   ALA99   LEU101  VAL102  CYS114 
 GLU115  TRP117  THR118  SER119  LEU120  ASP121  VAL122  CYS124  VAL125  THR126 
 SER128  SER173  PHE174  ILE177  CYS199  ASP200  PHE201  TYR207  SER215  PHE299 
 TRP303  PHE306  PHE307  ASN310  PHE325  VAL326  ASN329  TRP330  GLY332  TYR333 
 SER336 

> <Gold.Score>
     Score     S(PLP)   S(hbond)     S(cho)   S(metal)  DE(clash)   DE(tors)     intcor
     55.29     -54.05       1.00       0.00       0.00       0.00       0.96       0.16

> <Gold.PLP.Fitness>
55.2896

> <Gold.PLP.PLP>
-54.0455

> <Gold.PLP.part.hbond>
-4.0619

> <Gold.PLP.part.metal>
0.0000

> <Gold.PLP.part.buried>
-3.7974

> <Gold.PLP.part.nonpolar>
-45.5706

> <Gold.PLP.part.repulsive>
0.0000

> <Gold.PLP.ligand.clash>
0.0000

> <Gold.PLP.ligand.torsion>
0.9594

> <Gold.PLP.Chemscore.Hbond>
1.0000

> <Gold.PLP.Chemscore.CHOScore>
0.0000

> <Gold.PLP.Chemscore.Metal>
0.0000

> <Gold.Chemscore.Hbonds>
donor molecule, donor type, donor heavy atom, donor atom, acceptor molecule, acceptor atom, score
      L1  H     7    26       P1  2066  1.00

> <Gold.PLP.Chemscore.Internal.Correction>
0.1629

