#       Name:                C:\Users\porto\OneDrive\projekt\beta1\ligandy\L_4bvn.pdb L_4bvn.pdb 1
#       Creating user name   student
#       Creation time:       Mon Apr 08 14:36:52 2019


#       File generated by GOLD software.
#

@<TRIPOS>MOLECULE
C:\Users\porto\OneDrive\projekt\beta1\ligandy\L_4bvn.pdb L_4bvn.pdb 1|4bvn|mol2|1|dock1
    48    49     1
SMALL
GASTEIGER


@<TRIPOS>ATOM
      1 C1         -24.1446   6.5818  10.9465 C.2            1 <1>                0.1822
      2 N1         -23.6055   5.5485  10.3389 N.1            1 <1>               -0.3633
      3 O1         -24.1198   4.9158  14.7731 O.3            1 <1>               -0.4884
      4 C2         -24.2623   6.3167  12.2676 C.3            1 <1>                0.0496
      5 N2         -23.2078   7.3307  18.1276 N.3            1 <1>               -0.3088
      6 O2         -23.8998   4.6089  18.3386 O.3            1 <1>               -0.3872
      7 C3         -23.8018   5.0817  12.4692 C.ar           1 <1>                0.0656
      8 N3         -24.8019   8.9845   9.7183 N.1            1 <1>               -0.1885
      9 C4         -23.7046   4.3313  13.5851 C.ar           1 <1>                0.1336
     10 C5         -23.2322   3.0523  13.4880 C.ar           1 <1>               -0.0184
     11 C6         -22.8276   2.5195  12.2611 C.ar           1 <1>               -0.0489
     12 C7         -22.9738   3.3315  11.1254 C.ar           1 <1>                0.0031
     13 C8         -23.4430   4.5852  11.2458 C.ar           1 <1>               -0.0070
     14 C9         -23.6679   4.3634  15.9344 C.3            1 <1>                0.1166
     15 C10        -24.0455   5.3156  17.0678 C.3            1 <1>                0.1015
     16 C11        -23.1022   6.4722  16.9440 C.3            1 <1>                0.0256
     17 C12        -22.7091   8.7508  17.8753 C.3            1 <1>                0.0108
     18 C13        -22.4986   9.5507  19.2025 C.3            1 <1>               -0.0473
     19 C14        -23.7538   9.5380  17.0259 C.3            1 <1>               -0.0473
     20 C15        -21.3830   8.8260  17.0989 C.3            1 <1>               -0.0473
     21 C16        -24.5069   7.8729  10.3090 C.1            1 <1>                0.1289
     22 H21        -25.3123   6.3634  12.5547 H              1 <1>                0.0403
     23 H22        -23.6599   7.0255  12.8352 H              1 <1>                0.0403
     24 HN2        -22.6623   6.9073  18.8650 H              1 <1>                0.1225
     25 HO2        -24.1345   5.1964  19.0609 H              1 <1>                0.2100
     26 H5         -23.1661   2.4327  14.3704 H              1 <1>                0.0654
     27 H6         -22.4210   1.5194  12.2137 H              1 <1>                0.0625
     28 H7         -22.7091   2.9494  10.1507 H              1 <1>                0.0725
     29 H91        -22.5833   4.2637  15.8905 H              1 <1>                0.0723
     30 H92        -24.1553   3.4010  16.0921 H              1 <1>                0.0723
     31 H10        -25.0739   5.6560  16.9442 H              1 <1>                0.0640
     32 H111       -22.0819   6.1008  16.8556 H              1 <1>                0.0451
     33 H112       -23.3504   7.0496  16.0536 H              1 <1>                0.0451
     34 H131       -22.1431  10.5547  18.9700 H              1 <1>                0.0247
     35 H132       -23.4436   9.6161  19.7418 H              1 <1>                0.0247
     36 H133       -21.7620   9.0400  19.8221 H              1 <1>                0.0247
     37 H141       -23.3906  10.5509  16.8499 H              1 <1>                0.0247
     38 H142       -23.8998   9.0341  16.0708 H              1 <1>                0.0247
     39 H143       -24.7019   9.5800  17.5629 H              1 <1>                0.0247
     40 H151       -21.0995   9.8700  16.9625 H              1 <1>                0.0247
     41 H152       -20.6039   8.3085  17.6587 H              1 <1>                0.0247
     42 H153       -21.5042   8.3527  16.1244 H              1 <1>                0.0247
     43 ****       -25.1190   4.8795  14.7923 LP             1 <1>                0.0000
     44 ****       -23.8212   5.8701  14.7585 LP             1 <1>                0.0000
     45 ****       -24.1731   7.4070  18.3774 LP             1 <1>                0.0000
     46 ****       -22.9516   4.3101  18.4469 LP             1 <1>                0.0000
     47 ****       -24.5036   3.8118  18.3479 LP             1 <1>                0.0000
     48 ****       -25.0300   9.8443   9.2615 LP             1 <1>                0.0000
@<TRIPOS>BOND
    1    1    4 1     
    2    1   21 1     
    3    1    2 2     
    4    2   13 2     
    5    3    9 1     
    6    3   14 1     
    7    4    7 1     
    8    4   22 1     
    9    4   23 1     
   10    5   17 1     
   11    5   16 1     
   12    5   24 1     
   13    6   15 1     
   14    6   25 1     
   15    7    9 ar    
   16    7   13 ar    
   17    8   21 3     
   18    9   10 ar    
   19   10   11 ar    
   20   10   26 1     
   21   11   12 ar    
   22   11   27 1     
   23   12   13 ar    
   24   12   28 1     
   25   14   15 1     
   26   14   29 1     
   27   14   30 1     
   28   15   16 1     
   29   15   31 1     
   30   16   32 1     
   31   16   33 1     
   32   17   18 1     
   33   17   19 1     
   34   17   20 1     
   35   18   34 1     
   36   18   35 1     
   37   18   36 1     
   38   19   37 1     
   39   19   38 1     
   40   19   39 1     
   41   20   40 1     
   42   20   41 1     
   43   20   42 1     
   44    3   43 1     
   45    3   44 1     
   46    5   45 1     
   47    6   46 1     
   48    6   47 1     
   49    8   48 1     
@<TRIPOS>SUBSTRUCTURE
      1 ****           1
@<TRIPOS>SET
LONE_PAIRS      STATIC     ATOMS    <user>   **** ""
6 43 44 45 46 47 48
DONOR_HYDROGENS      STATIC     ATOMS    <user>   **** ""
2 24 25
ATOM$BLUE        STATIC     ATOMS    COLORGROUP SYSTEM
6 43 44 45 46 47 48
ATOM$RED        STATIC     ATOMS    COLORGROUP SYSTEM
2 24 25
@<TRIPOS>COMMENT
> <Gold.Version>
5.5

> <Gold.Id.Protein>
unknown|bialko_beta1|pdb

> <Gold.Protein.ActiveResidues>
 ALA86   ASP87   VAL90   VAL94   VAL95   GLY98   ALA99   LEU101  VAL102  CYS114 
 GLU115  TRP117  THR118  SER119  LEU120  ASP121  VAL122  CYS124  VAL125  THR126 
 SER128  SER173  PHE174  ILE177  CYS199  ASP200  PHE201  TYR207  SER215  PHE299 
 TRP303  PHE306  PHE307  ASN310  PHE325  VAL326  ASN329  TRP330  GLY332  TYR333 
 SER336 

> <Gold.Score>
     Score     S(PLP)   S(hbond)     S(cho)   S(metal)  DE(clash)   DE(tors)     intcor
     64.16     -64.16       0.00       0.00       0.00       0.00       0.00       0.00

> <Gold.PLP.Fitness>
64.1580

> <Gold.PLP.PLP>
-64.1580

> <Gold.PLP.part.hbond>
-4.9499

> <Gold.PLP.part.metal>
0.0000

> <Gold.PLP.part.buried>
-3.2547

> <Gold.PLP.part.nonpolar>
-56.9845

> <Gold.PLP.part.repulsive>
0.7064

> <Gold.PLP.ligand.clash>
0.0000

> <Gold.PLP.ligand.torsion>
0.0000

> <Gold.PLP.Chemscore.Hbond>
0.0000

> <Gold.PLP.Chemscore.CHOScore>
0.0000

> <Gold.PLP.Chemscore.Metal>
0.0000

> <Gold.PLP.Chemscore.Internal.Correction>
0.0000

