#       Name:                C:\Users\porto\OneDrive\projekt\beta2\ligandy\L_4qkx.pdb L_4qkx.pdb 1
#       Creating user name   student
#       Creation time:       Mon Apr 08 16:08:58 2019


#       File generated by GOLD software.
#

@<TRIPOS>MOLECULE
C:\Users\porto\OneDrive\projekt\beta2\ligandy\L_4qkx.pdb L_4qkx.pdb 1|4qkx|mol2|1|dock89
    62    63     1
SMALL
GASTEIGER


@<TRIPOS>ATOM
      1 CAA        -34.4341   3.1436   4.5888 C.3            1 <1>                0.0790
      2 CAF        -27.6956  12.6623   5.2796 C.ar           1 <1>               -0.0162
      3 CAG        -33.6144   7.2809   7.1131 C.ar           1 <1>               -0.0548
      4 CAH        -28.9912  12.6571   5.7809 C.ar           1 <1>               -0.0524
      5 CAI        -34.4534   6.4802   7.8845 C.ar           1 <1>               -0.0160
      6 CAJ        -28.6702  10.4716   6.7576 C.ar           1 <1>               -0.0109
      7 CAK        -33.3354   5.4604   5.5556 C.ar           1 <1>               -0.0131
      8 CAL        -35.9955   5.4783  10.2694 C.3            1 <1>                0.0249
      9 CAM        -31.2126   8.2593   5.9843 C.3            1 <1>               -0.0000
     10 CAN        -36.5318   5.0628   8.8935 C.3            1 <1>                0.0985
     11 CAO        -32.2210   7.5097   5.1009 C.3            1 <1>               -0.0150
     12 CAP        -31.2682  10.3106   7.6266 C.3            1 <1>                0.0261
     13 CAT        -26.8941  11.5592   5.5251 C.ar           1 <1>                0.1582
     14 CAU        -27.3744  10.4767   6.2544 C.ar           1 <1>                0.1586
     15 CAV        -33.0464   6.7642   5.9476 C.ar           1 <1>               -0.0425
     16 CAW        -29.4787  11.5701   6.5005 C.ar           1 <1>               -0.0143
     17 CAX        -34.7245   5.1786   7.4866 C.ar           1 <1>                0.1619
     18 CAY        -34.1732   4.6706   6.3179 C.ar           1 <1>                0.1618
     19 CAZ        -30.7789  11.6211   6.9892 C.3            1 <1>                0.0927
     20 NAQ        -31.6868   9.5760   6.4334 N.3            1 <1>               -0.3129
     21 OAB        -25.6147  11.4841   5.0712 O.3            1 <1>               -0.5033
     22 OAC        -26.5187   9.4361   6.4462 O.3            1 <1>               -0.5033
     23 OAD        -31.7223  12.0533   5.9959 O.3            1 <1>               -0.3859
     24 OAR        -34.4667   3.3814   6.0017 O.3            1 <1>               -0.4914
     25 OAS        -35.5257   4.3310   8.1876 O.3            1 <1>               -0.4875
     26 SAE        -37.1008   6.6734  11.0999 S.3            1 <1>               -0.1749
     27 HAA1       -34.6752   2.0996   4.3897 H              1 <1>                0.0660
     28 HAA2       -35.1642   3.7847   4.0946 H              1 <1>                0.0660
     29 HAA3       -33.4383   3.3653   4.2054 H              1 <1>                0.0660
     30 HAF        -27.3377  13.5113   4.7153 H              1 <1>                0.0655
     31 HAG        -33.4058   8.2953   7.4180 H              1 <1>                0.0621
     32 HAH        -29.6375  13.5059   5.6143 H              1 <1>                0.0622
     33 HAI        -34.8920   6.8722   8.7902 H              1 <1>                0.0655
     34 HAJ        -29.0227   9.6278   7.3314 H              1 <1>                0.0659
     35 HAK        -32.8998   5.0675   4.6489 H              1 <1>                0.0658
     36 HAL1       -35.8809   4.5939  10.8966 H              1 <1>                0.0407
     37 HAL2       -35.0055   5.9191  10.1543 H              1 <1>                0.0407
     38 HAM1       -30.2743   8.3788   5.4412 H              1 <1>                0.0427
     39 HAM2       -30.9678   7.6478   6.8523 H              1 <1>                0.0427
     40 HAN1       -36.8002   5.9526   8.3248 H              1 <1>                0.0705
     41 HAN2       -37.4139   4.4361   9.0213 H              1 <1>                0.0705
     42 HAO1       -31.6857   6.8368   4.4309 H              1 <1>                0.0325
     43 HAO2       -32.8245   8.2291   4.5479 H              1 <1>                0.0325
     44 HAP1       -30.4208   9.7983   8.0815 H              1 <1>                0.0453
     45 HAP2       -32.1432  10.5187   8.2417 H              1 <1>                0.0453
     46 HAZ        -30.7876  12.3737   7.7771 H              1 <1>                0.0656
     47 HNAQ       -31.4858  10.2669   5.7247 H              1 <1>                0.1220
     48 HOAB       -25.1526  12.2997   5.2783 H              1 <1>                0.2923
     49 HOAC       -27.0110   8.6120   6.4464 H              1 <1>                0.2923
     50 HOAD       -32.6052  11.7773   6.2507 H              1 <1>                0.2103
     51 HSAE       -38.3608   6.2341  11.0360 H              1 <1>                0.1017
     52 ****       -32.6053   9.2456   6.6510 LP             1 <1>                0.0000
     53 ****       -25.6201  11.3465   4.0807 LP             1 <1>                0.0000
     54 ****       -25.1494  10.7164   5.5118 LP             1 <1>                0.0000
     55 ****       -26.0522   9.5458   7.3239 LP             1 <1>                0.0000
     56 ****       -25.8429   9.4203   5.7093 LP             1 <1>                0.0000
     57 ****       -31.4874  11.6455   5.1135 LP             1 <1>                0.0000
     58 ****       -31.6936  13.0500   5.9205 LP             1 <1>                0.0000
     59 ****       -33.7987   2.7825   6.4435 LP             1 <1>                0.0000
     60 ****       -35.3824   3.1678   6.3422 LP             1 <1>                0.0000
     61 ****       -35.9653   3.6942   7.5542 LP             1 <1>                0.0000
     62 ****       -34.9702   3.8192   8.8429 LP             1 <1>                0.0000
@<TRIPOS>BOND
    1    1   24 1     
    2    1   27 1     
    3    1   28 1     
    4    1   29 1     
    5    2    4 ar    
    6    2   13 ar    
    7    2   30 1     
    8    3    5 ar    
    9    3   15 ar    
   10    3   31 1     
   11    4   16 ar    
   12    4   32 1     
   13    5   17 ar    
   14    5   33 1     
   15    6   14 ar    
   16    6   16 ar    
   17    6   34 1     
   18    7   18 ar    
   19    7   15 ar    
   20    7   35 1     
   21    8   26 1     
   22    8   10 1     
   23    8   36 1     
   24    8   37 1     
   25    9   11 1     
   26    9   20 1     
   27    9   38 1     
   28    9   39 1     
   29   10   25 1     
   30   10   40 1     
   31   10   41 1     
   32   11   15 1     
   33   11   42 1     
   34   11   43 1     
   35   12   20 1     
   36   12   19 1     
   37   12   44 1     
   38   12   45 1     
   39   13   21 1     
   40   13   14 ar    
   41   14   22 1     
   42   16   19 1     
   43   17   25 1     
   44   17   18 ar    
   45   18   24 1     
   46   19   23 1     
   47   19   46 1     
   48   20   47 1     
   49   21   48 1     
   50   22   49 1     
   51   23   50 1     
   52   26   51 1     
   53   20   52 1     
   54   21   53 1     
   55   21   54 1     
   56   22   55 1     
   57   22   56 1     
   58   23   57 1     
   59   23   58 1     
   60   24   59 1     
   61   24   60 1     
   62   25   61 1     
   63   25   62 1     
@<TRIPOS>SUBSTRUCTURE
      1 ****           1
@<TRIPOS>SET
LONE_PAIRS      STATIC     ATOMS    <user>   **** ""
11 52 53 54 55 56 57 58 59 60 61 62
DONOR_HYDROGENS      STATIC     ATOMS    <user>   **** ""
4 47 48 49 50
ATOM$BLUE        STATIC     ATOMS    COLORGROUP SYSTEM
11 52 53 54 55 56 57 58 59 60 61 62
ATOM$RED        STATIC     ATOMS    COLORGROUP SYSTEM
4 47 48 49 50
@<TRIPOS>COMMENT
> <Gold.Version>
5.5

> <Gold.Id.Protein>
unknown|dok_beta2|pdb

> <Gold.Protein.RotatedTorsions>
[ 4175 4166 4165 4163 ] final  149.10 input -179.98 | X-H torsion
[ 1294 1290 1288 1285 ] final  123.12 input -179.99 | X-H torsion
[ 4033 4024 4023 4021 ] final  139.51 input  179.98 | X-H torsion
[ 1412 1408 1406 1403 ] final -123.31 input -179.99 | X-H torsion
[ 2830 2825 2824 2821 ] final  145.34 input -179.98 | X-H torsion
[ 2723 2714 2713 2711 ] final   -0.50 input -179.98 | X-H torsion
[ 2773 2768 2767 2764 ] final  -91.94 input  180.00 | X-H torsion

> <Gold.Protein.ActiveResidues>
 TRP109  THR110  ASP113  VAL114  VAL117  THR118  PHE193  TYR199  SER203  SER207 
 PHE208  TRP286  PHE289  PHE290  ASN293  TYR308  ASN312  TYR316 

> <Gold.Protein.RotatedAtoms>
  -34.6016    3.6965    1.0596 H   0  0  0  0  0  0  0  0  0  0  0  0  # atno 1294 bound_to 1290
  -26.5921   14.9348    2.2775 H   0  0  0  0  0  0  0  0  0  0  0  0  # atno 1412 bound_to 1408
  -26.1376    7.9723    1.2529 H   0  0  0  0  0  0  0  0  0  0  0  0  # atno 2723 bound_to 2714
  -24.4606   10.2164    3.9000 H   0  0  0  0  0  0  0  0  0  0  0  0  # atno 2773 bound_to 2768
  -24.4762   12.7372    3.0552 H   0  0  0  0  0  0  0  0  0  0  0  0  # atno 2830 bound_to 2825
  -28.5119    7.0351   11.4355 H   0  0  0  0  0  0  0  0  0  0  0  0  # atno 4033 bound_to 4024
  -36.6735    9.3426    7.1272 H   0  0  0  0  0  0  0  0  0  0  0  0  # atno 4175 bound_to 4166
  -37.7911    8.4459    7.8399 LP  0  0  0  0  0  0  0  0  0  0  0  0  # atno 4597 bound_to 4166
  -36.2968    8.5825    8.4841 LP  0  0  0  0  0  0  0  0  0  0  0  0  # atno 4598 bound_to 4166
  -35.3892    4.7351    1.9882 LP  0  0  0  0  0  0  0  0  0  0  0  0  # atno 4603 bound_to 1290
  -33.9909    4.0598    2.4936 LP  0  0  0  0  0  0  0  0  0  0  0  0  # atno 4604 bound_to 1290
  -29.3376    5.9581   10.5866 LP  0  0  0  0  0  0  0  0  0  0  0  0  # atno 4607 bound_to 4024
  -27.8719    5.5864   11.2031 LP  0  0  0  0  0  0  0  0  0  0  0  0  # atno 4608 bound_to 4024
  -28.1008   14.5108    1.9529 LP  0  0  0  0  0  0  0  0  0  0  0  0  # atno 4611 bound_to 1408
  -27.7034   15.1227    3.4138 LP  0  0  0  0  0  0  0  0  0  0  0  0  # atno 4612 bound_to 1408
  -23.2700   13.6526    2.5381 LP  0  0  0  0  0  0  0  0  0  0  0  0  # atno 4613 bound_to 2825
  -24.8025   13.9416    2.0536 LP  0  0  0  0  0  0  0  0  0  0  0  0  # atno 4614 bound_to 2825

> <Gold.Score>
     Score     S(PLP)   S(hbond)     S(cho)   S(metal)  DE(clash)   DE(tors)     intcor
     83.82     -80.37       2.00       0.00       0.00       1.99       2.22       3.89

> <Gold.PLP.Fitness>
83.8247

> <Gold.PLP.PLP>
-80.3725

> <Gold.PLP.part.hbond>
-3.6354

> <Gold.PLP.part.metal>
0.0000

> <Gold.PLP.part.buried>
-4.0484

> <Gold.PLP.part.nonpolar>
-72.8188

> <Gold.PLP.part.repulsive>
0.1238

> <Gold.PLP.ligand.clash>
1.9918

> <Gold.PLP.ligand.torsion>
2.2222

> <Gold.PLP.Chemscore.Hbond>
2.0000

> <Gold.PLP.Chemscore.CHOScore>
0.0000

> <Gold.PLP.Chemscore.Metal>
0.0000

> <Gold.Chemscore.Hbonds>
donor molecule, donor type, donor heavy atom, donor atom, acceptor molecule, acceptor atom, score
      L1  H    23    50       P1  1334  1.00
      P1  H  2768  2773       L1    21  1.00

> <Gold.PLP.Chemscore.Internal.Correction>
3.8885

