#       Name:                C:\Users\porto\OneDrive\projekt\beta1\ligandy\L_6h7n.pdb L_6h7n.pdb 1
#       Creating user name   student
#       Creation time:       Mon Apr 08 14:36:59 2019


#       File generated by GOLD software.
#

@<TRIPOS>MOLECULE
C:\Users\porto\OneDrive\projekt\beta1\ligandy\L_6h7n.pdb L_6h7n.pdb 1|6h7n|mol2|1|dock1
    60    61     1
SMALL
GASTEIGER


@<TRIPOS>ATOM
      1 C1         -24.7471  11.2488  21.9163 C.3            1 <1>                0.0396
      2 N1         -23.6842  10.3646  21.4433 N.am           1 <1>               -0.2813
      3 O1         -24.4204  10.4698  24.1766 O.3            1 <1>               -0.3767
      4 C2         -24.4884  11.6256  23.3521 C.3            1 <1>                0.0635
      5 N2         -22.3016   9.6801  19.7019 N.am           1 <1>               -0.2980
      6 O2         -23.1115  11.7401  19.7421 O.2            1 <1>               -0.2526
      7 C3         -23.3499   9.6356  23.7490 C.3            1 <1>                0.0635
      8 N3         -22.7658   7.8042  17.6913 N.3            1 <1>               -0.3119
      9 O3         -24.1885   5.5594  14.3771 O.3            1 <1>               -0.4894
     10 C4         -23.5010   9.2032  22.3105 C.3            1 <1>                0.0396
     11 O4         -22.8200   3.6126   9.4003 O.3            1 <1>               -0.5068
     12 C5         -23.0100  10.6358  20.2729 C.2            1 <1>                0.3024
     13 O5         -23.6696   5.2120  17.9578 O.3            1 <1>               -0.3872
     14 C6         -21.5975   9.8726  18.4403 C.3            1 <1>                0.0256
     15 C7         -21.5462   8.6108  17.6029 C.3            1 <1>                0.0116
     16 C8         -23.0338   7.0328  16.4772 C.3            1 <1>                0.0252
     17 C9         -23.9752   5.8627  16.7320 C.3            1 <1>                0.1015
     18 C10        -23.8771   4.8685  15.5953 C.3            1 <1>                0.1166
     19 C11        -23.8197   5.0200  13.1692 C.ar           1 <1>                0.1209
     20 C12        -24.0961   5.7840  12.0430 C.ar           1 <1>               -0.0165
     21 C13        -23.7599   5.3198  10.7793 C.ar           1 <1>               -0.0167
     22 C14        -23.1513   4.0839  10.6309 C.ar           1 <1>                0.1171
     23 C15        -22.8778   3.3211  11.7511 C.ar           1 <1>               -0.0167
     24 C16        -23.2084   3.7816  13.0138 C.ar           1 <1>               -0.0165
     25 H11        -25.7055  10.7356  21.8424 H              1 <1>                0.0488
     26 H12        -24.7697  12.1491  21.3027 H              1 <1>                0.0488
     27 H21        -25.2876  12.2769  23.7060 H              1 <1>                0.0575
     28 H22        -23.5494  12.1756  23.4197 H              1 <1>                0.0575
     29 HN2        -22.2318   8.7725  20.1404 H              1 <1>                0.1503
     30 H31        -23.2994   8.7552  24.3893 H              1 <1>                0.0575
     31 H32        -22.4063  10.1665  23.8708 H              1 <1>                0.0575
     32 HN3        -23.5360   8.4333  17.8684 H              1 <1>                0.1221
     33 H41        -22.6104   8.6554  22.0011 H              1 <1>                0.0488
     34 H42        -24.3628   8.5419  22.2190 H              1 <1>                0.0488
     35 HO4        -22.4112   2.7489   9.4872 H              1 <1>                0.2921
     36 HO5        -24.2771   4.4807  18.0924 H              1 <1>                0.2100
     37 H61        -20.5825  10.2165  18.6410 H              1 <1>                0.0475
     38 H62        -22.0831  10.6649  17.8714 H              1 <1>                0.0475
     39 H71        -21.3618   8.8744  16.5611 H              1 <1>                0.0439
     40 H72        -20.6910   8.0087  17.9083 H              1 <1>                0.0439
     41 H81        -22.0941   6.6600  16.0696 H              1 <1>                0.0450
     42 H82        -23.4652   7.6876  15.7198 H              1 <1>                0.0450
     43 H9         -24.9968   6.2389  16.7808 H              1 <1>                0.0640
     44 H101       -22.8605   4.4778  15.5417 H              1 <1>                0.0723
     45 H102       -24.5978   4.0656  15.7521 H              1 <1>                0.0723
     46 H12        -24.5754   6.7462  12.1471 H              1 <1>                0.0655
     47 H13        -23.9724   5.9222   9.9088 H              1 <1>                0.0655
     48 H15        -22.4017   2.3574  11.6450 H              1 <1>                0.0655
     49 H16        -22.9894   3.1752  13.8804 H              1 <1>                0.0655
     50 ****       -25.2811   9.9647  24.1120 LP             1 <1>                0.0000
     51 ****       -24.2670  10.7470  25.1251 LP             1 <1>                0.0000
     52 ****       -23.6848  12.4449  20.1600 LP             1 <1>                0.0000
     53 ****       -22.6207  11.9336  18.8926 LP             1 <1>                0.0000
     54 ****       -22.6493   7.1381  18.4280 LP             1 <1>                0.0000
     55 ****       -23.7552   6.4587  14.4361 LP             1 <1>                0.0000
     56 ****       -25.1822   5.6691  14.3531 LP             1 <1>                0.0000
     57 ****       -22.1777   4.2429   8.9641 LP             1 <1>                0.0000
     58 ****       -23.6446   3.5361   8.8398 LP             1 <1>                0.0000
     59 ****       -23.7591   5.8627  18.7119 LP             1 <1>                0.0000
     60 ****       -22.7322   4.8652  17.9263 LP             1 <1>                0.0000
@<TRIPOS>BOND
    1    1    2 1     
    2    1    4 1     
    3    1   25 1     
    4    1   26 1     
    5    2   10 1     
    6    2   12 am    
    7    3    4 1     
    8    3    7 1     
    9    4   27 1     
   10    4   28 1     
   11    5   12 am    
   12    5   14 1     
   13    5   29 1     
   14    6   12 2     
   15    7   10 1     
   16    7   30 1     
   17    7   31 1     
   18    8   16 1     
   19    8   15 1     
   20    8   32 1     
   21    9   18 1     
   22    9   19 1     
   23   10   33 1     
   24   10   34 1     
   25   11   22 1     
   26   11   35 1     
   27   13   17 1     
   28   13   36 1     
   29   14   15 1     
   30   14   37 1     
   31   14   38 1     
   32   15   39 1     
   33   15   40 1     
   34   16   17 1     
   35   16   41 1     
   36   16   42 1     
   37   17   18 1     
   38   17   43 1     
   39   18   44 1     
   40   18   45 1     
   41   19   20 ar    
   42   19   24 ar    
   43   20   21 ar    
   44   20   46 1     
   45   21   22 ar    
   46   21   47 1     
   47   22   23 ar    
   48   23   24 ar    
   49   23   48 1     
   50   24   49 1     
   51    3   50 1     
   52    3   51 1     
   53    6   52 1     
   54    6   53 1     
   55    8   54 1     
   56    9   55 1     
   57    9   56 1     
   58   11   57 1     
   59   11   58 1     
   60   13   59 1     
   61   13   60 1     
@<TRIPOS>SUBSTRUCTURE
      1 ****           1
@<TRIPOS>SET
LONE_PAIRS      STATIC     ATOMS    <user>   **** ""
11 50 51 52 53 54 55 56 57 58 59 60
DONOR_HYDROGENS      STATIC     ATOMS    <user>   **** ""
4 29 32 35 36
ATOM$BLUE        STATIC     ATOMS    COLORGROUP SYSTEM
11 50 51 52 53 54 55 56 57 58 59 60
ATOM$RED        STATIC     ATOMS    COLORGROUP SYSTEM
4 29 32 35 36
@<TRIPOS>COMMENT
> <Gold.Version>
5.5

> <Gold.Id.Protein>
unknown|bialko_beta1|pdb

> <Gold.Protein.ActiveResidues>
 ALA86   ASP87   VAL90   VAL94   VAL95   GLY98   ALA99   LEU101  VAL102  CYS114 
 GLU115  TRP117  THR118  SER119  LEU120  ASP121  VAL122  CYS124  VAL125  THR126 
 SER128  SER173  PHE174  ILE177  CYS199  ASP200  PHE201  TYR207  SER215  PHE299 
 TRP303  PHE306  PHE307  ASN310  PHE325  VAL326  ASN329  TRP330  GLY332  TYR333 
 SER336 

> <Gold.Score>
     Score     S(PLP)   S(hbond)     S(cho)   S(metal)  DE(clash)   DE(tors)     intcor
     62.83     -62.83       0.00       0.00       0.00       0.00       0.00       0.00

> <Gold.PLP.Fitness>
62.8278

> <Gold.PLP.PLP>
-62.8278

> <Gold.PLP.part.hbond>
-5.7946

> <Gold.PLP.part.metal>
0.0000

> <Gold.PLP.part.buried>
-0.7741

> <Gold.PLP.part.nonpolar>
-55.9515

> <Gold.PLP.part.repulsive>
0.2192

> <Gold.PLP.ligand.clash>
0.0000

> <Gold.PLP.ligand.torsion>
0.0000

> <Gold.PLP.Chemscore.Hbond>
0.0000

> <Gold.PLP.Chemscore.CHOScore>
0.0000

> <Gold.PLP.Chemscore.Metal>
0.0000

> <Gold.PLP.Chemscore.Internal.Correction>
0.0000

