#       Name:                C:\Users\porto\OneDrive\projekt\beta2\ligandy\L_2rh1.pdb L_2rh1.pdb 1
#       Creating user name   student
#       Creation time:       Mon Apr 08 15:39:52 2019


#       File generated by GOLD software.
#

@<TRIPOS>MOLECULE
C:\Users\porto\OneDrive\projekt\beta2\ligandy\L_2rh1.pdb L_2rh1.pdb 1|2rh1|mol2|1|dock8
    49    51     1
SMALL
GASTEIGER


@<TRIPOS>ATOM
      1 C1         -25.5455   7.2131   7.1105 C.ar           1 <1>               -0.0598
      2 C2         -24.9194   8.2868   6.4875 C.ar           1 <1>               -0.0378
      3 C3         -25.6283   9.4360   6.2268 C.ar           1 <1>                0.0476
      4 C4         -27.0319   9.4826   6.6205 C.ar           1 <1>                0.0109
      5 C5         -27.6380   8.4035   7.2384 C.ar           1 <1>               -0.0519
      6 C6         -26.8862   7.2688   7.4805 C.ar           1 <1>               -0.0611
      7 N7         -25.3309  10.6461   5.6430 N.pl3          1 <1>               -0.3540
      8 C8         -26.4481  11.4483   5.6444 C.ar           1 <1>                0.0510
      9 C9         -27.5294  10.6959   6.2699 C.ar           1 <1>                0.0490
     10 C10        -26.7097  12.7123   5.2050 C.ar           1 <1>               -0.0375
     11 C11        -27.9722  13.2604   5.3528 C.ar           1 <1>               -0.0563
     12 C12        -28.9989  12.5416   5.9488 C.ar           1 <1>               -0.0192
     13 C13        -28.7942  11.2393   6.4205 C.ar           1 <1>                0.1303
     14 O14        -29.7974  10.5303   7.0054 O.3            1 <1>               -0.4887
     15 C15        -31.1681  10.8673   6.9120 C.3            1 <1>                0.1166
     16 C16        -31.9655   9.9491   7.8040 C.3            1 <1>                0.1015
     17 O17        -33.2078  10.5637   8.1011 O.3            1 <1>               -0.3872
     18 C18        -32.1715   8.5999   7.1088 C.3            1 <1>                0.0254
     19 N19        -33.4543   7.9918   7.4481 N.3            1 <1>               -0.3112
     20 C20        -33.8080   6.6638   6.9786 C.3            1 <1>                0.0021
     21 C21        -33.0444   5.6246   7.7972 C.3            1 <1>               -0.0499
     22 C22        -33.5200   6.5521   5.4784 C.3            1 <1>               -0.0499
     23 H1         -24.9676   6.3214   7.3060 H              1 <1>                0.0618
     24 H2         -23.8785   8.2175   6.2093 H              1 <1>                0.0638
     25 H5         -28.6784   8.4582   7.5214 H              1 <1>                0.0624
     26 H6         -27.3489   6.4203   7.9623 H              1 <1>                0.0618
     27 HN7        -24.3991  10.8240   5.2952 H              1 <1>                0.1659
     28 H10        -25.9291  13.2942   4.7378 H              1 <1>                0.0638
     29 H11        -28.1704  14.2622   5.0016 H              1 <1>                0.0619
     30 H12        -29.9778  12.9856   6.0556 H              1 <1>                0.0654
     31 H151       -31.5011  10.7513   5.8805 H              1 <1>                0.0723
     32 H152       -31.3109  11.8988   7.2329 H              1 <1>                0.0723
     33 H16        -31.4169   9.7900   8.7324 H              1 <1>                0.0640
     34 HO17       -33.5003  11.0765   7.3448 H              1 <1>                0.2100
     35 H181       -31.3645   7.9220   7.3867 H              1 <1>                0.0450
     36 H182       -32.1087   8.7347   6.0289 H              1 <1>                0.0450
     37 HN19       -33.5339   7.9117   8.4513 H              1 <1>                0.1223
     38 H20        -34.8756   6.5130   7.1381 H              1 <1>                0.0455
     39 H211       -33.3054   4.6248   7.4505 H              1 <1>                0.0245
     40 H212       -31.9725   5.7818   7.6770 H              1 <1>                0.0245
     41 H213       -33.3098   5.7233   8.8502 H              1 <1>                0.0245
     42 H221       -33.7870   5.5540   5.1299 H              1 <1>                0.0245
     43 H222       -34.1088   7.2943   4.9389 H              1 <1>                0.0245
     44 H223       -32.4596   6.7288   5.2969 H              1 <1>                0.0245
     45 ****       -29.5874  10.5211   7.9831 LP             1 <1>                0.0000
     46 ****       -29.7217   9.6027   6.6395 LP             1 <1>                0.0000
     47 ****       -33.1007  11.1669   8.8914 LP             1 <1>                0.0000
     48 ****       -33.8867   9.8595   8.3090 LP             1 <1>                0.0000
     49 ****       -34.0633   8.6236   6.9686 LP             1 <1>                0.0000
@<TRIPOS>BOND
    1    1    6 ar    
    2    1    2 ar    
    3    1   23 1     
    4    2    3 ar    
    5    2   24 1     
    6    3    4 ar    
    7    3    7 ar    
    8    4    5 ar    
    9    4    9 ar    
   10    5    6 ar    
   11    5   25 1     
   12    6   26 1     
   13    7    8 ar    
   14    7   27 1     
   15    8    9 ar    
   16    8   10 ar    
   17    9   13 ar    
   18   10   11 ar    
   19   10   28 1     
   20   11   12 ar    
   21   11   29 1     
   22   12   13 ar    
   23   12   30 1     
   24   13   14 1     
   25   14   15 1     
   26   15   16 1     
   27   15   31 1     
   28   15   32 1     
   29   16   18 1     
   30   16   17 1     
   31   16   33 1     
   32   17   34 1     
   33   18   19 1     
   34   18   35 1     
   35   18   36 1     
   36   19   20 1     
   37   19   37 1     
   38   20   21 1     
   39   20   22 1     
   40   20   38 1     
   41   21   39 1     
   42   21   40 1     
   43   21   41 1     
   44   22   42 1     
   45   22   43 1     
   46   22   44 1     
   47   14   45 1     
   48   14   46 1     
   49   17   47 1     
   50   17   48 1     
   51   19   49 1     
@<TRIPOS>SUBSTRUCTURE
      1 ****           1
@<TRIPOS>SET
LONE_PAIRS      STATIC     ATOMS    <user>   **** ""
5 45 46 47 48 49
DONOR_HYDROGENS      STATIC     ATOMS    <user>   **** ""
3 27 34 37
ATOM$BLUE        STATIC     ATOMS    COLORGROUP SYSTEM
5 45 46 47 48 49
ATOM$RED        STATIC     ATOMS    COLORGROUP SYSTEM
3 27 34 37
@<TRIPOS>COMMENT
> <Gold.Version>
5.5

> <Gold.Id.Protein>
unknown|dok_beta2|pdb

> <Gold.Protein.RotatedTorsions>
[ 4175 4166 4165 4163 ] final   42.85 input -179.98 | X-H torsion
[ 1294 1290 1288 1285 ] final  111.11 input -179.99 | X-H torsion
[ 4033 4024 4023 4021 ] final  139.21 input  179.98 | X-H torsion
[ 1412 1408 1406 1403 ] final  177.20 input -179.99 | X-H torsion
[ 2830 2825 2824 2821 ] final  156.12 input -179.98 | X-H torsion
[ 2723 2714 2713 2711 ] final  -95.60 input -179.98 | X-H torsion
[ 2773 2768 2767 2764 ] final -139.21 input  180.00 | X-H torsion

> <Gold.Protein.ActiveResidues>
 TRP109  THR110  ASP113  VAL114  VAL117  THR118  PHE193  TYR199  SER203  SER207 
 PHE208  TRP286  PHE289  PHE290  ASN293  TYR308  ASN312  TYR316 

> <Gold.Protein.RotatedAtoms>
  -34.7639    3.7846    1.0182 H   0  0  0  0  0  0  0  0  0  0  0  0  # atno 1294 bound_to 1290
  -27.2065   14.6083    1.7100 H   0  0  0  0  0  0  0  0  0  0  0  0  # atno 1412 bound_to 1408
  -26.1053    8.3493    2.5335 H   0  0  0  0  0  0  0  0  0  0  0  0  # atno 2723 bound_to 2714
  -24.7208    9.6405    3.5436 H   0  0  0  0  0  0  0  0  0  0  0  0  # atno 2773 bound_to 2768
  -24.6299   12.7796    2.9963 H   0  0  0  0  0  0  0  0  0  0  0  0  # atno 2830 bound_to 2825
  -28.5162    7.0361   11.4337 H   0  0  0  0  0  0  0  0  0  0  0  0  # atno 4033 bound_to 4024
  -37.7831    8.5813    7.6606 H   0  0  0  0  0  0  0  0  0  0  0  0  # atno 4175 bound_to 4166
  -36.4696    8.4639    8.5672 LP  0  0  0  0  0  0  0  0  0  0  0  0  # atno 4597 bound_to 4166
  -36.4616    9.3581    7.2008 LP  0  0  0  0  0  0  0  0  0  0  0  0  # atno 4598 bound_to 4166
  -35.2994    4.7695    2.1604 LP  0  0  0  0  0  0  0  0  0  0  0  0  # atno 4603 bound_to 1290
  -33.9115    3.9336    2.3645 LP  0  0  0  0  0  0  0  0  0  0  0  0  # atno 4604 bound_to 1290
  -29.3357    5.9536   10.5859 LP  0  0  0  0  0  0  0  0  0  0  0  0  # atno 4607 bound_to 4024
  -27.8693    5.5898   11.2057 LP  0  0  0  0  0  0  0  0  0  0  0  0  # atno 4608 bound_to 4024
  -28.3535   14.7772    2.8133 LP  0  0  0  0  0  0  0  0  0  0  0  0  # atno 4611 bound_to 1408
  -26.8104   15.1965    3.1447 LP  0  0  0  0  0  0  0  0  0  0  0  0  # atno 4612 bound_to 1408
  -23.2521   13.5146    2.6477 LP  0  0  0  0  0  0  0  0  0  0  0  0  # atno 4613 bound_to 2825
  -24.6602   14.0356    2.0054 LP  0  0  0  0  0  0  0  0  0  0  0  0  # atno 4614 bound_to 2825

> <Gold.Score>
     Score     S(PLP)   S(hbond)     S(cho)   S(metal)  DE(clash)   DE(tors)     intcor
     87.00     -79.85       2.99       0.00       0.00       0.00       0.96       0.09

> <Gold.PLP.Fitness>
86.9990

> <Gold.PLP.PLP>
-79.8458

> <Gold.PLP.part.hbond>
-5.1261

> <Gold.PLP.part.metal>
0.0000

> <Gold.PLP.part.buried>
-10.3986

> <Gold.PLP.part.nonpolar>
-65.6096

> <Gold.PLP.part.repulsive>
0.0919

> <Gold.PLP.ligand.clash>
0.0000

> <Gold.PLP.ligand.torsion>
0.9578

> <Gold.PLP.Chemscore.Hbond>
2.9920

> <Gold.PLP.Chemscore.CHOScore>
0.0000

> <Gold.PLP.Chemscore.Metal>
0.0000

> <Gold.Chemscore.Hbonds>
donor molecule, donor type, donor heavy atom, donor atom, acceptor molecule, acceptor atom, score
      L1  H    17    34       P1  1334  1.00
      L1  H    19    37       P1  4098  1.00
      P1  H  4097  4104       L1    17  0.99

> <Gold.PLP.Chemscore.Internal.Correction>
0.0927

