#       Name:                C:\Users\porto\OneDrive\projekt\beta1\ligandy\2y00 2y00 1
#       Creating user name   student
#       Creation time:       Mon Apr 08 14:41:18 2019


#       File generated by GOLD software.
#

@<TRIPOS>MOLECULE
C:\Users\porto\OneDrive\projekt\beta1\ligandy\2y00 2y00 1|2y00|mol2|1|dock12
    52    53     1
SMALL
GASTEIGER


@<TRIPOS>ATOM
      1 C1         -23.0495  11.0176  18.0859 C.3            1 <1>               -0.0150
      2 N1         -23.5042   8.9944  16.7059 N.3            1 <1>               -0.3132
      3 O1         -26.2445  14.4633  19.6102 O.3            1 <1>               -0.5033
      4 C2         -23.5980  11.9760  19.1268 C.ar           1 <1>               -0.0425
      5 O2         -25.1003  14.5957  22.0095 O.3            1 <1>               -0.5033
      6 C3         -22.9839  12.0446  20.3893 C.ar           1 <1>               -0.0549
      7 O3         -23.2429   2.7777  11.5081 O.3            1 <1>               -0.5068
      8 C4         -23.4633  12.8896  21.4021 C.ar           1 <1>               -0.0163
      9 C5         -24.5584  13.7119  21.1274 C.ar           1 <1>                0.1582
     10 C6         -25.1893  13.6507  19.8029 C.ar           1 <1>                0.1585
     11 C7         -24.7008  12.7916  18.8273 C.ar           1 <1>               -0.0133
     12 C8         -24.0806   9.9818  17.6250 C.3            1 <1>                0.0001
     13 C9         -22.3995   8.1140  17.0991 C.3            1 <1>                0.0051
     14 C10        -21.0797   8.8847  17.2196 C.3            1 <1>               -0.0497
     15 C11        -22.1964   6.9655  16.1199 C.3            1 <1>               -0.0338
     16 C12        -23.3136   5.9271  16.1937 C.3            1 <1>               -0.0263
     17 C13        -23.2855   5.0574  14.9615 C.ar           1 <1>               -0.0471
     18 C14        -23.1084   3.6723  15.0652 C.ar           1 <1>               -0.0551
     19 C15        -23.0978   2.9013  13.9055 C.ar           1 <1>               -0.0199
     20 C16        -23.2450   3.5099  12.6537 C.ar           1 <1>                0.1169
     21 C17        -23.4141   4.8787  12.5466 C.ar           1 <1>               -0.0199
     22 C18        -23.4363   5.6523  13.7085 C.ar           1 <1>               -0.0551
     23 H11        -22.1767  10.5048  18.4901 H              1 <1>                0.0325
     24 H12        -22.6939  11.5830  17.2246 H              1 <1>                0.0325
     25 HN1        -23.2208   9.5600  15.9190 H              1 <1>                0.1222
     26 HO1        -26.0274  15.3477  19.9133 H              1 <1>                0.2923
     27 HO2        -24.6965  15.4581  21.8885 H              1 <1>                0.2923
     28 H3         -22.1180  11.4361  20.6024 H              1 <1>                0.0621
     29 HO3        -23.6425   1.9207  11.6745 H              1 <1>                0.2921
     30 H4         -22.9864  12.8954  22.3717 H              1 <1>                0.0655
     31 H7         -25.1576  12.7455  17.8495 H              1 <1>                0.0658
     32 H81        -24.9112  10.4902  17.1363 H              1 <1>                0.0427
     33 H82        -24.4937   9.4702  18.4945 H              1 <1>                0.0427
     34 H9         -22.6348   7.6899  18.0758 H              1 <1>                0.0458
     35 H101       -20.2836   8.1999  17.5130 H              1 <1>                0.0245
     36 H102       -20.8333   9.3375  16.2591 H              1 <1>                0.0245
     37 H103       -21.1824   9.6654  17.9732 H              1 <1>                0.0245
     38 H111       -21.2394   6.4832  16.3200 H              1 <1>                0.0283
     39 H112       -22.1356   7.3604  15.1058 H              1 <1>                0.0283
     40 H121       -24.2762   6.4341  16.2585 H              1 <1>                0.0314
     41 H122       -23.1751   5.3065  17.0795 H              1 <1>                0.0314
     42 H14        -22.9824   3.2147  16.0352 H              1 <1>                0.0621
     43 H15        -22.9755   1.8307  13.9701 H              1 <1>                0.0654
     44 H17        -23.5268   5.3344  11.5740 H              1 <1>                0.0654
     45 H18        -23.5719   6.7213  13.6307 H              1 <1>                0.0621
     46 ****       -24.2102   8.2977  16.5790 LP             1 <1>                0.0000
     47 ****       -27.0294  14.1180  20.1247 LP             1 <1>                0.0000
     48 ****       -26.4704  14.4909  18.6364 LP             1 <1>                0.0000
     49 ****       -24.9347  14.2784  22.9433 LP             1 <1>                0.0000
     50 ****       -26.0852  14.6637  21.8504 LP             1 <1>                0.0000
     51 ****       -22.3015   2.6512  11.1953 LP             1 <1>                0.0000
     52 ****       -23.7662   3.2583  10.8045 LP             1 <1>                0.0000
@<TRIPOS>BOND
    1    1    4 1     
    2    1   12 1     
    3    1   23 1     
    4    1   24 1     
    5    2   12 1     
    6    2   13 1     
    7    2   25 1     
    8    3   10 1     
    9    3   26 1     
   10    4    6 ar    
   11    4   11 ar    
   12    5    9 1     
   13    5   27 1     
   14    6    8 ar    
   15    6   28 1     
   16    7   20 1     
   17    7   29 1     
   18    8    9 ar    
   19    8   30 1     
   20    9   10 ar    
   21   10   11 ar    
   22   11   31 1     
   23   12   32 1     
   24   12   33 1     
   25   13   14 1     
   26   13   15 1     
   27   13   34 1     
   28   14   35 1     
   29   14   36 1     
   30   14   37 1     
   31   15   16 1     
   32   15   38 1     
   33   15   39 1     
   34   16   17 1     
   35   16   40 1     
   36   16   41 1     
   37   17   18 ar    
   38   17   22 ar    
   39   18   19 ar    
   40   18   42 1     
   41   19   20 ar    
   42   19   43 1     
   43   20   21 ar    
   44   21   22 ar    
   45   21   44 1     
   46   22   45 1     
   47    2   46 1     
   48    3   47 1     
   49    3   48 1     
   50    5   49 1     
   51    5   50 1     
   52    7   51 1     
   53    7   52 1     
@<TRIPOS>SUBSTRUCTURE
      1 ****           1
@<TRIPOS>SET
LONE_PAIRS      STATIC     ATOMS    <user>   **** ""
7 46 47 48 49 50 51 52
DONOR_HYDROGENS      STATIC     ATOMS    <user>   **** ""
4 25 26 27 29
ATOM$BLUE        STATIC     ATOMS    COLORGROUP SYSTEM
7 46 47 48 49 50 51 52
ATOM$RED        STATIC     ATOMS    COLORGROUP SYSTEM
4 25 26 27 29
@<TRIPOS>COMMENT
> <Gold.Version>
5.5

> <Gold.Id.Protein>
unknown|bialko_beta1|pdb

> <Gold.Protein.ActiveResidues>
 ALA86   ASP87   VAL90   VAL94   VAL95   GLY98   ALA99   LEU101  VAL102  CYS114 
 GLU115  TRP117  THR118  SER119  LEU120  ASP121  VAL122  CYS124  VAL125  THR126 
 SER128  SER173  PHE174  ILE177  CYS199  ASP200  PHE201  TYR207  SER215  PHE299 
 TRP303  PHE306  PHE307  ASN310  PHE325  VAL326  ASN329  TRP330  GLY332  TYR333 
 SER336 

> <Gold.Score>
     Score     S(PLP)   S(hbond)     S(cho)   S(metal)  DE(clash)   DE(tors)     intcor
     69.35     -70.06       0.00       0.00       0.00       0.00       0.41       0.11

> <Gold.PLP.Fitness>
69.3530

> <Gold.PLP.PLP>
-70.0632

> <Gold.PLP.part.hbond>
-1.9516

> <Gold.PLP.part.metal>
0.0000

> <Gold.PLP.part.buried>
-9.0019

> <Gold.PLP.part.nonpolar>
-59.5371

> <Gold.PLP.part.repulsive>
0.0000

> <Gold.PLP.ligand.clash>
0.0000

> <Gold.PLP.ligand.torsion>
0.4104

> <Gold.PLP.Chemscore.Hbond>
0.0000

> <Gold.PLP.Chemscore.CHOScore>
0.0000

> <Gold.PLP.Chemscore.Metal>
0.0000

> <Gold.PLP.Chemscore.Internal.Correction>
0.1106

