#       Name:                C:\Users\porto\OneDrive\projekt\beta1\ligandy\L_4amj.pdb L_4amj.pdb 1
#       Creating user name   student
#       Creation time:       Mon Apr 08 16:28:22 2019


#       File generated by GOLD software.
#

@<TRIPOS>MOLECULE
C:\Users\porto\OneDrive\projekt\beta1\ligandy\L_4amj.pdb L_4amj.pdb 1|4amj|mol2|1|dock14
    65    68     1
SMALL
GASTEIGER


@<TRIPOS>ATOM
      1 C1         -22.3676   8.4717  18.1474 C.3            1 <1>                0.1015
      2 N1         -24.8100  12.9509  22.7838 N.pl3          1 <1>               -0.3540
      3 O1         -22.9997   7.7098  19.1780 O.3            1 <1>               -0.3872
      4 C2         -22.9886   9.8479  18.1672 C.3            1 <1>                0.1166
      5 N2         -24.0377   7.2545  16.8528 N.3            1 <1>               -0.3102
      6 O2         -23.2059  10.1742  19.5493 O.3            1 <1>               -0.4887
      7 C3         -23.7901  11.3623  19.8481 C.ar           1 <1>                0.1303
      8 O3         -23.7533   5.7207  14.5401 O.3            1 <1>               -0.4870
      9 C4         -24.1151  11.6797  21.1502 C.ar           1 <1>                0.0490
     10 O4         -24.0808   7.1159  12.1638 O.3            1 <1>               -0.4915
     11 C5         -23.8294  11.0436  22.3445 C.ar           1 <1>                0.0109
     12 C6         -24.7088  12.8763  21.4347 C.ar           1 <1>                0.0510
     13 C7         -24.3069  11.8180  23.3793 C.ar           1 <1>                0.0476
     14 C8         -23.2499   9.8261  22.6069 C.ar           1 <1>               -0.0519
     15 C9         -24.1631  11.3874  24.6872 C.ar           1 <1>               -0.0378
     16 C10        -23.5997  10.1327  24.9852 C.ar           1 <1>               -0.0598
     17 C11        -23.1374   9.3624  23.9500 C.ar           1 <1>               -0.0611
     18 C12        -25.0454  13.7266  20.4203 C.ar           1 <1>               -0.0375
     19 C13        -24.7789  13.4054  19.1352 C.ar           1 <1>               -0.0563
     20 C14        -24.1576  12.2075  18.8220 C.ar           1 <1>               -0.0192
     21 C15        -22.6844   7.8609  16.7822 C.3            1 <1>                0.0253
     22 C16        -23.9019   5.7542  16.9029 C.3            1 <1>                0.0302
     23 C17        -23.0397   5.3446  15.7198 C.3            1 <1>                0.1022
     24 C18        -23.5505   5.0796  13.3098 C.ar           1 <1>                0.1619
     25 C19        -23.7172   5.7729  12.1160 C.ar           1 <1>                0.1615
     26 C20        -23.4960   5.1482  10.8769 C.ar           1 <1>               -0.0163
     27 C21        -23.1584   3.8140  10.8165 C.ar           1 <1>               -0.0581
     28 C22        -22.9942   3.1171  12.0114 C.ar           1 <1>               -0.0581
     29 C23        -23.1771   3.7588  13.2413 C.ar           1 <1>               -0.0163
     30 C24        -24.1745   7.8546  10.9320 C.3            1 <1>                0.0790
     31 H1         -21.2911   8.5279  18.3092 H              1 <1>                0.0640
     32 HN1        -25.2154  13.7689  23.2157 H              1 <1>                0.1659
     33 HO1        -23.9449   7.6758  19.0172 H              1 <1>                0.2100
     34 H21        -23.9456   9.8212  17.6467 H              1 <1>                0.0723
     35 H22        -22.2941  10.5655  17.7303 H              1 <1>                0.0723
     36 HN2        -24.5711   7.5172  16.0368 H              1 <1>                0.1221
     37 H8         -22.8785   9.2184  21.7950 H              1 <1>                0.0624
     38 H9         -24.4862  12.0182  25.5015 H              1 <1>                0.0638
     39 H10        -23.5397   9.7970  26.0106 H              1 <1>                0.0618
     40 H11        -22.6873   8.4017  24.1541 H              1 <1>                0.0618
     41 H12        -25.5293  14.6664  20.6413 H              1 <1>                0.0638
     42 H13        -25.0504  14.0855  18.3416 H              1 <1>                0.0619
     43 H14        -23.9596  11.9301  17.7973 H              1 <1>                0.0654
     44 H151       -21.9520   7.0878  16.5519 H              1 <1>                0.0450
     45 H152       -22.6762   8.6440  16.0240 H              1 <1>                0.0450
     46 H161       -24.8872   5.2972  16.8091 H              1 <1>                0.0457
     47 H162       -23.4062   5.4655  17.8297 H              1 <1>                0.0457
     48 H171       -22.0927   5.8833  15.7576 H              1 <1>                0.0709
     49 H172       -22.9003   4.2634  15.7294 H              1 <1>                0.0709
     50 H20        -23.5904   5.7144   9.9627 H              1 <1>                0.0655
     51 H21        -23.0279   3.3333   9.8582 H              1 <1>                0.0619
     52 H22        -22.7229   2.0717  11.9940 H              1 <1>                0.0619
     53 H23        -23.0186   3.1948  14.1482 H              1 <1>                0.0655
     54 H241       -24.4674   8.8823  11.1456 H              1 <1>                0.0660
     55 H242       -23.2070   7.8501  10.4310 H              1 <1>                0.0660
     56 H243       -24.9200   7.3914  10.2860 H              1 <1>                0.0660
     57 ****       -22.8277   8.1405  20.0640 LP             1 <1>                0.0000
     58 ****       -22.6286   6.7812  19.1812 LP             1 <1>                0.0000
     59 ****       -24.5094   7.5799  17.6723 LP             1 <1>                0.0000
     60 ****       -22.3131  10.1622  19.9997 LP             1 <1>                0.0000
     61 ****       -23.7837   9.4552  19.9355 LP             1 <1>                0.0000
     62 ****       -24.7240   5.6129  14.7546 LP             1 <1>                0.0000
     63 ****       -23.5509   6.6880  14.3878 LP             1 <1>                0.0000
     64 ****       -24.9781   7.1618  12.6028 LP             1 <1>                0.0000
     65 ****       -23.4059   7.5826  12.7355 LP             1 <1>                0.0000
@<TRIPOS>BOND
    1    1    4 1     
    2    1   21 1     
    3    1    3 1     
    4    1   31 1     
    5    2   12 ar    
    6    2   13 ar    
    7    2   32 1     
    8    3   33 1     
    9    4    6 1     
   10    4   34 1     
   11    4   35 1     
   12    5   22 1     
   13    5   21 1     
   14    5   36 1     
   15    6    7 1     
   16    7    9 ar    
   17    7   20 ar    
   18    8   24 1     
   19    8   23 1     
   20    9   11 ar    
   21    9   12 ar    
   22   10   30 1     
   23   10   25 1     
   24   11   13 ar    
   25   11   14 ar    
   26   12   18 ar    
   27   13   15 ar    
   28   14   17 ar    
   29   14   37 1     
   30   15   16 ar    
   31   15   38 1     
   32   16   17 ar    
   33   16   39 1     
   34   17   40 1     
   35   18   19 ar    
   36   18   41 1     
   37   19   20 ar    
   38   19   42 1     
   39   20   43 1     
   40   21   44 1     
   41   21   45 1     
   42   22   23 1     
   43   22   46 1     
   44   22   47 1     
   45   23   48 1     
   46   23   49 1     
   47   24   25 ar    
   48   24   29 ar    
   49   25   26 ar    
   50   26   27 ar    
   51   26   50 1     
   52   27   28 ar    
   53   27   51 1     
   54   28   29 ar    
   55   28   52 1     
   56   29   53 1     
   57   30   54 1     
   58   30   55 1     
   59   30   56 1     
   60    3   57 1     
   61    3   58 1     
   62    5   59 1     
   63    6   60 1     
   64    6   61 1     
   65    8   62 1     
   66    8   63 1     
   67   10   64 1     
   68   10   65 1     
@<TRIPOS>SUBSTRUCTURE
      1 ****           1
@<TRIPOS>SET
LONE_PAIRS      STATIC     ATOMS    <user>   **** ""
9 57 58 59 60 61 62 63 64 65
DONOR_HYDROGENS      STATIC     ATOMS    <user>   **** ""
3 32 33 36
ATOM$BLUE        STATIC     ATOMS    COLORGROUP SYSTEM
9 57 58 59 60 61 62 63 64 65
ATOM$RED        STATIC     ATOMS    COLORGROUP SYSTEM
3 32 33 36
@<TRIPOS>COMMENT
> <Gold.Version>
5.5

> <Gold.Id.Protein>
unknown|bialko_beta1|pdb

> <Gold.Protein.ActiveResidues>
 ALA86   ASP87   VAL90   VAL94   VAL95   GLY98   ALA99   LEU101  VAL102  CYS114 
 GLU115  TRP117  THR118  SER119  LEU120  ASP121  VAL122  CYS124  VAL125  THR126 
 SER128  SER173  PHE174  ILE177  CYS199  ASP200  PHE201  TYR207  SER215  PHE299 
 TRP303  PHE306  PHE307  ASN310  PHE325  VAL326  ASN329  TRP330  GLY332  TYR333 
 SER336 

> <Gold.Score>
     Score     S(PLP)   S(hbond)     S(cho)   S(metal)  DE(clash)   DE(tors)     intcor
     88.25     -87.90       1.00       0.00       0.00       1.32       1.42       1.52

> <Gold.PLP.Fitness>
88.2517

> <Gold.PLP.PLP>
-87.9013

> <Gold.PLP.part.hbond>
-3.9428

> <Gold.PLP.part.metal>
0.0000

> <Gold.PLP.part.buried>
-7.9141

> <Gold.PLP.part.nonpolar>
-76.2301

> <Gold.PLP.part.repulsive>
0.1781

> <Gold.PLP.ligand.clash>
1.3192

> <Gold.PLP.ligand.torsion>
1.4238

> <Gold.PLP.Chemscore.Hbond>
1.0000

> <Gold.PLP.Chemscore.CHOScore>
0.0000

> <Gold.PLP.Chemscore.Metal>
0.0000

> <Gold.Chemscore.Hbonds>
donor molecule, donor type, donor heavy atom, donor atom, acceptor molecule, acceptor atom, score
      L1  H     3    33       P1  2066  1.00

> <Gold.PLP.Chemscore.Internal.Correction>
1.5173

