#       Name:                C:\Users\porto\OneDrive\projekt\beta2\ligandy\L_3d4s.pdb L_3d4s.pdb 1
#       Creating user name   student
#       Creation time:       Mon Apr 08 16:02:50 2019


#       File generated by GOLD software.
#

@<TRIPOS>MOLECULE
C:\Users\porto\OneDrive\projekt\beta2\ligandy\L_3d4s.pdb L_3d4s.pdb 1|3d4s|mol2|1|dock6
    54    55     1
SMALL
GASTEIGER


@<TRIPOS>ATOM
      1 O1         -26.0848   6.8591   6.9885 O.3            1 <1>               -0.3767
      2 C2         -27.2511   7.3284   7.6500 C.3            1 <1>                0.0634
      3 C3         -27.9130   8.5539   6.9948 C.3            1 <1>                0.0372
      4 N4         -26.9963   9.4792   6.3773 N.pl3          1 <1>               -0.3060
      5 C5         -25.7182   8.9839   5.9068 C.3            1 <1>                0.0372
      6 C6         -25.1386   7.8969   6.8145 C.3            1 <1>                0.0634
      7 C7         -27.3737  10.7462   6.0039 C.ar           1 <1>                0.1942
      8 N8         -26.4874  11.5963   5.4589 N.ar           1 <1>               -0.1717
      9 S9         -27.2333  13.0140   5.1055 S.2            1 <1>                0.1206
     10 N10        -28.7439  12.6544   5.6224 N.ar           1 <1>               -0.1530
     11 C11        -28.7404  11.4134   6.0854 C.ar           1 <1>                0.2652
     12 O12        -29.8507  10.8068   6.6217 O.3            1 <1>               -0.4710
     13 C13        -31.0364  11.6232   6.8488 C.3            1 <1>                0.1183
     14 C14        -31.7826  10.7564   7.8740 C.3            1 <1>                0.1016
     15 O15        -33.0842  11.1961   8.1327 O.3            1 <1>               -0.3872
     16 C16        -31.7739   9.3106   7.4117 C.3            1 <1>                0.0256
     17 N17        -32.9922   8.5376   7.4873 N.3            1 <1>               -0.3088
     18 C18        -32.6969   7.1998   6.9150 C.3            1 <1>                0.0108
     19 C19        -32.0706   7.3227   5.5339 C.3            1 <1>               -0.0473
     20 C20        -31.6958   6.4699   7.8471 C.3            1 <1>               -0.0473
     21 C21        -34.0043   6.3887   6.8069 C.3            1 <1>               -0.0473
     22 H21        -27.0095   7.5608   8.6871 H              1 <1>                0.0575
     23 H22        -27.9778   6.5192   7.7178 H              1 <1>                0.0575
     24 H31        -28.5118   9.0805   7.7382 H              1 <1>                0.0487
     25 H32        -28.6401   8.2187   6.2545 H              1 <1>                0.0487
     26 H51        -25.0127   9.8117   5.8371 H              1 <1>                0.0487
     27 H52        -25.8317   8.5898   4.8966 H              1 <1>                0.0487
     28 H61        -24.2334   7.4914   6.3625 H              1 <1>                0.0575
     29 H62        -24.8899   8.3283   7.7842 H              1 <1>                0.0575
     30 H131       -31.6193  11.6684   5.9285 H              1 <1>                0.0724
     31 H132       -30.7395  12.5596   7.3219 H              1 <1>                0.0724
     32 H14        -31.2273  10.8046   8.8113 H              1 <1>                0.0640
     33 HO15       -33.4904  11.4934   7.3153 H              1 <1>                0.2100
     34 H161       -30.9813   8.7757   7.9340 H              1 <1>                0.0451
     35 H162       -31.3870   9.2657   6.3939 H              1 <1>                0.0451
     36 HN17       -33.2808   8.4557   8.4513 H              1 <1>                0.1225
     37 H191       -31.8644   6.3282   5.1377 H              1 <1>                0.0247
     38 H192       -32.7589   7.8435   4.8676 H              1 <1>                0.0247
     39 H193       -31.1394   7.8849   5.6051 H              1 <1>                0.0247
     40 H201       -31.4700   5.4847   7.4384 H              1 <1>                0.0247
     41 H202       -30.7773   7.0518   7.9213 H              1 <1>                0.0247
     42 H203       -32.1360   6.3594   8.8385 H              1 <1>                0.0247
     43 H211       -33.7892   5.4066   6.3867 H              1 <1>                0.0247
     44 H212       -34.4430   6.2718   7.7983 H              1 <1>                0.0247
     45 H213       -34.7059   6.9142   6.1593 H              1 <1>                0.0247
     46 ****       -26.3419   6.4991   6.0917 LP             1 <1>                0.0000
     47 ****       -25.6719   6.1302   7.5344 LP             1 <1>                0.0000
     48 ****       -25.5217  11.3957   5.2941 LP             1 <1>                0.0000
     49 ****       -29.5341  13.2666   5.5936 LP             1 <1>                0.0000
     50 ****       -29.5815  10.4220   7.5046 LP             1 <1>                0.0000
     51 ****       -30.1135  10.0672   6.0020 LP             1 <1>                0.0000
     52 ****       -33.0567  11.9529   8.7857 LP             1 <1>                0.0000
     53 ****       -33.6199  10.4439   8.5165 LP             1 <1>                0.0000
     54 ****       -33.7341   8.9761   6.9801 LP             1 <1>                0.0000
@<TRIPOS>BOND
    1    1    2 1     
    2    1    6 1     
    3    2    3 1     
    4    2   22 1     
    5    2   23 1     
    6    3    4 1     
    7    3   24 1     
    8    3   25 1     
    9    4    7 1     
   10    4    5 1     
   11    5    6 1     
   12    5   26 1     
   13    5   27 1     
   14    6   28 1     
   15    6   29 1     
   16    7    8 ar    
   17    7   11 ar    
   18    8    9 ar    
   19    9   10 ar    
   20   10   11 ar    
   21   11   12 1     
   22   12   13 1     
   23   13   14 1     
   24   13   30 1     
   25   13   31 1     
   26   14   15 1     
   27   14   16 1     
   28   14   32 1     
   29   15   33 1     
   30   16   17 1     
   31   16   34 1     
   32   16   35 1     
   33   17   18 1     
   34   17   36 1     
   35   18   19 1     
   36   18   20 1     
   37   18   21 1     
   38   19   37 1     
   39   19   38 1     
   40   19   39 1     
   41   20   40 1     
   42   20   41 1     
   43   20   42 1     
   44   21   43 1     
   45   21   44 1     
   46   21   45 1     
   47    1   46 1     
   48    1   47 1     
   49    8   48 1     
   50   10   49 1     
   51   12   50 1     
   52   12   51 1     
   53   15   52 1     
   54   15   53 1     
   55   17   54 1     
@<TRIPOS>SUBSTRUCTURE
      1 ****           1
@<TRIPOS>SET
LONE_PAIRS      STATIC     ATOMS    <user>   **** ""
9 46 47 48 49 50 51 52 53 54
DONOR_HYDROGENS      STATIC     ATOMS    <user>   **** ""
2 33 36
ATOM$BLUE        STATIC     ATOMS    COLORGROUP SYSTEM
9 46 47 48 49 50 51 52 53 54
ATOM$RED        STATIC     ATOMS    COLORGROUP SYSTEM
2 33 36
@<TRIPOS>COMMENT
> <Gold.Version>
5.5

> <Gold.Id.Protein>
unknown|dok_beta2|pdb

> <Gold.Protein.RotatedTorsions>
[ 4175 4166 4165 4163 ] final -148.46 input -179.98 | X-H torsion
[ 1294 1290 1288 1285 ] final   76.71 input -179.99 | X-H torsion
[ 4033 4024 4023 4021 ] final -102.94 input  179.98 | X-H torsion
[ 1412 1408 1406 1403 ] final  147.68 input -179.99 | X-H torsion
[ 2830 2825 2824 2821 ] final  152.64 input -179.98 | X-H torsion
[ 2723 2714 2713 2711 ] final -110.83 input -179.98 | X-H torsion
[ 2773 2768 2767 2764 ] final  159.17 input  180.00 | X-H torsion

> <Gold.Protein.ActiveResidues>
 TRP109  THR110  ASP113  VAL114  VAL117  THR118  PHE193  TYR199  SER203  SER207 
 PHE208  TRP286  PHE289  PHE290  ASN293  TYR308  ASN312  TYR316 

> <Gold.Protein.RotatedAtoms>
  -35.1795    4.1126    1.0968 H   0  0  0  0  0  0  0  0  0  0  0  0  # atno 1294 bound_to 1290
  -27.6601   14.5272    1.7275 H   0  0  0  0  0  0  0  0  0  0  0  0  # atno 1412 bound_to 1408
  -26.2213    8.2385    2.7120 H   0  0  0  0  0  0  0  0  0  0  0  0  # atno 2723 bound_to 2714
  -24.5607    9.4405    2.6528 H   0  0  0  0  0  0  0  0  0  0  0  0  # atno 2773 bound_to 2768
  -24.5818   12.7633    3.0171 H   0  0  0  0  0  0  0  0  0  0  0  0  # atno 2830 bound_to 2825
  -27.8862    5.6340   11.2290 H   0  0  0  0  0  0  0  0  0  0  0  0  # atno 4033 bound_to 4024
  -36.0717    9.1206    7.8115 H   0  0  0  0  0  0  0  0  0  0  0  0  # atno 4175 bound_to 4166
  -37.5065    9.0288    7.1087 LP  0  0  0  0  0  0  0  0  0  0  0  0  # atno 4597 bound_to 4166
  -37.2087    8.2310    8.5021 LP  0  0  0  0  0  0  0  0  0  0  0  0  # atno 4598 bound_to 4166
  -34.9062    4.7187    2.5526 LP  0  0  0  0  0  0  0  0  0  0  0  0  # atno 4603 bound_to 1290
  -33.8716    3.6426    1.8905 LP  0  0  0  0  0  0  0  0  0  0  0  0  # atno 4604 bound_to 1290
  -28.5398    7.0821   11.4236 LP  0  0  0  0  0  0  0  0  0  0  0  0  # atno 4607 bound_to 4024
  -29.3214    5.9218   10.5813 LP  0  0  0  0  0  0  0  0  0  0  0  0  # atno 4608 bound_to 4024
  -28.1274   14.9608    3.1954 LP  0  0  0  0  0  0  0  0  0  0  0  0  # atno 4611 bound_to 1408
  -26.5639   15.0975    2.7445 LP  0  0  0  0  0  0  0  0  0  0  0  0  # atno 4612 bound_to 1408
  -23.2543   13.5596    2.6125 LP  0  0  0  0  0  0  0  0  0  0  0  0  # atno 4613 bound_to 2825
  -24.7081   14.0075    2.0189 LP  0  0  0  0  0  0  0  0  0  0  0  0  # atno 4614 bound_to 2825

> <Gold.Score>
     Score     S(PLP)   S(hbond)     S(cho)   S(metal)  DE(clash)   DE(tors)     intcor
     73.93     -66.34       3.00       0.00       0.00       0.00       1.00       0.58

> <Gold.PLP.Fitness>
73.9317

> <Gold.PLP.PLP>
-66.3448

> <Gold.PLP.part.hbond>
-3.3012

> <Gold.PLP.part.metal>
0.0000

> <Gold.PLP.part.buried>
-10.2169

> <Gold.PLP.part.nonpolar>
-54.5078

> <Gold.PLP.part.repulsive>
0.1459

> <Gold.PLP.ligand.clash>
0.0000

> <Gold.PLP.ligand.torsion>
0.9987

> <Gold.PLP.Chemscore.Hbond>
3.0000

> <Gold.PLP.Chemscore.CHOScore>
0.0000

> <Gold.PLP.Chemscore.Metal>
0.0000

> <Gold.Chemscore.Hbonds>
donor molecule, donor type, donor heavy atom, donor atom, acceptor molecule, acceptor atom, score
      L1  H    15    33       P1  1334  1.00
      L1  H    17    36       P1  4098  1.00
      P1  H  4097  4104       L1    15  1.00

> <Gold.PLP.Chemscore.Internal.Correction>
0.5844

