#       Name:                C:\Users\porto\OneDrive\projekt\beta2\ligandy\L_3ny9.pdb L_3ny9.pdb 1
#       Creating user name   student
#       Creation time:       Mon Apr 08 15:46:59 2019


#       File generated by GOLD software.
#

@<TRIPOS>MOLECULE
C:\Users\porto\OneDrive\projekt\beta2\ligandy\L_3ny9.pdb L_3ny9.pdb 1|3ny9|mol2|1|dock43
    58    59     1
SMALL
GASTEIGER


@<TRIPOS>ATOM
      1 C1         -26.6613  11.3433   5.4153 C.2            1 <1>                0.3751
      2 N1         -33.7571   5.6539   9.8384 N.3            1 <1>               -0.3112
      3 O1         -25.7047  11.5916   4.7011 O.2            1 <1>               -0.2415
      4 C2         -27.6103  13.6688   5.1074 C.3            1 <1>                0.0901
      5 O2         -27.6855  12.3518   5.6680 O.3            1 <1>               -0.4593
      6 C3         -26.8096  14.5650   6.0296 C.3            1 <1>               -0.0306
      7 O3         -25.7568   9.1032   6.0229 O.3            1 <1>               -0.4478
      8 C4         -26.7743  10.0054   6.0415 C.ar           1 <1>                0.2156
      9 O4         -29.3243   7.0764   8.4002 O.3            1 <1>               -0.4886
     10 C5         -27.9079   9.3989   6.7786 C.ar           1 <1>                0.0131
     11 O5         -32.1939   7.2833   8.4533 O.3            1 <1>               -0.3872
     12 C6         -29.2844   9.9015   7.1260 C.3            1 <1>               -0.0352
     13 C7         -27.5035   8.1151   7.1796 C.ar           1 <1>                0.0655
     14 C8         -26.2004   8.0292   6.6783 C.ar           1 <1>                0.1398
     15 C9         -25.4383   6.8814   6.8699 C.ar           1 <1>               -0.0185
     16 C10        -25.9888   5.8053   7.5677 C.ar           1 <1>               -0.0548
     17 C11        -27.2856   5.8813   8.0701 C.ar           1 <1>               -0.0191
     18 C12        -28.0541   7.0308   7.8762 C.ar           1 <1>                0.1316
     19 C13        -30.1788   5.9422   8.5924 C.3            1 <1>                0.1166
     20 C14        -31.4683   6.3803   9.2928 C.3            1 <1>                0.1015
     21 C15        -32.3752   5.1951   9.6128 C.3            1 <1>                0.0254
     22 C16        -34.4803   4.7336  10.7534 C.3            1 <1>                0.0021
     23 C17        -34.0742   5.0204  12.1962 C.3            1 <1>               -0.0499
     24 C18        -35.9923   4.8636  10.5949 C.3            1 <1>               -0.0499
     25 HN1        -33.7429   6.5760  10.2510 H              1 <1>                0.1223
     26 H21        -28.6162  14.0725   4.9924 H              1 <1>                0.0695
     27 H22        -27.1226  13.6217   4.1337 H              1 <1>                0.0695
     28 H31        -26.7520  15.5669   5.6036 H              1 <1>                0.0262
     29 H32        -27.2960  14.6118   7.0036 H              1 <1>                0.0262
     30 H33        -25.8039  14.1618   6.1460 H              1 <1>                0.0262
     31 HO5        -32.9711   7.6000   8.9192 H              1 <1>                0.2100
     32 H61        -29.8207   9.1356   7.6869 H              1 <1>                0.0279
     33 H62        -29.1999  10.8032   7.7331 H              1 <1>                0.0279
     34 H63        -29.8299  10.1304   6.2102 H              1 <1>                0.0279
     35 H9         -24.4326   6.8299   6.4802 H              1 <1>                0.0654
     36 H10        -25.4085   4.9069   7.7212 H              1 <1>                0.0620
     37 H11        -27.7036   5.0472   8.6144 H              1 <1>                0.0654
     38 H131       -29.6662   5.2015   9.2055 H              1 <1>                0.0723
     39 H132       -30.4221   5.5026   7.6250 H              1 <1>                0.0723
     40 H14        -31.2109   6.8896  10.2214 H              1 <1>                0.0640
     41 H151       -32.3578   4.4895   8.7815 H              1 <1>                0.0450
     42 H152       -32.0103   4.6895  10.5073 H              1 <1>                0.0450
     43 H16        -34.1942   3.7107  10.5108 H              1 <1>                0.0455
     44 H171       -34.6064   4.3438  12.8650 H              1 <1>                0.0245
     45 H172       -33.0001   4.8713  12.3080 H              1 <1>                0.0245
     46 H173       -34.3255   6.0505  12.4475 H              1 <1>                0.0245
     47 H181       -36.4902   4.1760  11.2791 H              1 <1>                0.0245
     48 H182       -36.2952   5.8855  10.8224 H              1 <1>                0.0245
     49 H183       -36.2723   4.6221   9.5696 H              1 <1>                0.0245
     50 ****       -34.2281   5.6722   8.9564 LP             1 <1>                0.0000
     51 ****       -25.6154  12.4946   4.2809 LP             1 <1>                0.0000
     52 ****       -25.0094  10.8921   4.5355 LP             1 <1>                0.0000
     53 ****       -24.9510   9.4799   6.4799 LP             1 <1>                0.0000
     54 ****       -25.5237   8.8627   5.0807 LP             1 <1>                0.0000
     55 ****       -29.8353   7.6966   7.8051 LP             1 <1>                0.0000
     56 ****       -29.2238   7.4900   9.3051 LP             1 <1>                0.0000
     57 ****       -32.4756   6.8092   7.6192 LP             1 <1>                0.0000
     58 ****       -31.6094   8.0588   8.2147 LP             1 <1>                0.0000
@<TRIPOS>BOND
    1    1    3 2     
    2    1    5 1     
    3    1    8 1     
    4    2   21 1     
    5    2   22 1     
    6    2   25 1     
    7    4    5 1     
    8    4    6 1     
    9    4   26 1     
   10    4   27 1     
   11    6   28 1     
   12    6   29 1     
   13    6   30 1     
   14    7    8 ar    
   15    7   14 ar    
   16    8   10 ar    
   17    9   18 1     
   18    9   19 1     
   19   10   12 1     
   20   10   13 ar    
   21   11   20 1     
   22   11   31 1     
   23   12   32 1     
   24   12   33 1     
   25   12   34 1     
   26   13   14 ar    
   27   13   18 ar    
   28   14   15 ar    
   29   15   16 ar    
   30   15   35 1     
   31   16   17 ar    
   32   16   36 1     
   33   17   18 ar    
   34   17   37 1     
   35   19   20 1     
   36   19   38 1     
   37   19   39 1     
   38   20   21 1     
   39   20   40 1     
   40   21   41 1     
   41   21   42 1     
   42   22   23 1     
   43   22   24 1     
   44   22   43 1     
   45   23   44 1     
   46   23   45 1     
   47   23   46 1     
   48   24   47 1     
   49   24   48 1     
   50   24   49 1     
   51    2   50 1     
   52    3   51 1     
   53    3   52 1     
   54    7   53 1     
   55    7   54 1     
   56    9   55 1     
   57    9   56 1     
   58   11   57 1     
   59   11   58 1     
@<TRIPOS>SUBSTRUCTURE
      1 ****           1
@<TRIPOS>SET
LONE_PAIRS      STATIC     ATOMS    <user>   **** ""
9 50 51 52 53 54 55 56 57 58
DONOR_HYDROGENS      STATIC     ATOMS    <user>   **** ""
2 25 31
ATOM$BLUE        STATIC     ATOMS    COLORGROUP SYSTEM
9 50 51 52 53 54 55 56 57 58
ATOM$RED        STATIC     ATOMS    COLORGROUP SYSTEM
2 25 31
@<TRIPOS>COMMENT
> <Gold.Version>
5.5

> <Gold.Id.Protein>
unknown|dok_beta2|pdb

> <Gold.Protein.RotatedTorsions>
[ 4175 4166 4165 4163 ] final  123.39 input -179.98 | X-H torsion
[ 1294 1290 1288 1285 ] final -171.85 input -179.99 | X-H torsion
[ 4033 4024 4023 4021 ] final -121.41 input  179.98 | X-H torsion
[ 1412 1408 1406 1403 ] final   76.21 input -179.99 | X-H torsion
[ 2830 2825 2824 2821 ] final  147.90 input -179.98 | X-H torsion
[ 2723 2714 2713 2711 ] final  138.41 input -179.98 | X-H torsion
[ 2773 2768 2767 2764 ] final  -91.45 input  180.00 | X-H torsion

> <Gold.Protein.ActiveResidues>
 TRP109  THR110  ASP113  VAL114  VAL117  THR118  PHE193  TYR199  SER203  SER207 
 PHE208  TRP286  PHE289  PHE290  ASN293  TYR308  ASN312  TYR316 

> <Gold.Protein.RotatedAtoms>
  -33.9303    3.6272    1.7602 H   0  0  0  0  0  0  0  0  0  0  0  0  # atno 1294 bound_to 1290
  -28.3416   14.6859    2.5198 H   0  0  0  0  0  0  0  0  0  0  0  0  # atno 1412 bound_to 1408
  -27.0330    7.0431    2.3513 H   0  0  0  0  0  0  0  0  0  0  0  0  # atno 2723 bound_to 2714
  -24.4567   10.2229    3.9009 H   0  0  0  0  0  0  0  0  0  0  0  0  # atno 2773 bound_to 2768
  -24.5139   12.7451    3.0427 H   0  0  0  0  0  0  0  0  0  0  0  0  # atno 2830 bound_to 2825
  -27.7845    5.8671   11.3697 H   0  0  0  0  0  0  0  0  0  0  0  0  # atno 4033 bound_to 4024
  -37.0570    9.2565    7.0402 H   0  0  0  0  0  0  0  0  0  0  0  0  # atno 4175 bound_to 4166
  -37.6135    8.2869    8.1852 LP  0  0  0  0  0  0  0  0  0  0  0  0  # atno 4597 bound_to 4166
  -36.0746    8.8312    8.2297 LP  0  0  0  0  0  0  0  0  0  0  0  0  # atno 4598 bound_to 4166
  -35.2909    4.1941    1.1368 LP  0  0  0  0  0  0  0  0  0  0  0  0  # atno 4603 bound_to 1290
  -34.7887    4.6730    2.6150 LP  0  0  0  0  0  0  0  0  0  0  0  0  # atno 4604 bound_to 1290
  -28.8103    7.0932   11.2880 LP  0  0  0  0  0  0  0  0  0  0  0  0  # atno 4607 bound_to 4024
  -29.1569    5.6679   10.5703 LP  0  0  0  0  0  0  0  0  0  0  0  0  # atno 4608 bound_to 4024
  -27.0633   15.2138    3.3251 LP  0  0  0  0  0  0  0  0  0  0  0  0  # atno 4611 bound_to 1408
  -26.9178   14.6791    1.7891 LP  0  0  0  0  0  0  0  0  0  0  0  0  # atno 4612 bound_to 1408
  -23.2628   13.6203    2.5643 LP  0  0  0  0  0  0  0  0  0  0  0  0  # atno 4613 bound_to 2825
  -24.7704   13.9658    2.0405 LP  0  0  0  0  0  0  0  0  0  0  0  0  # atno 4614 bound_to 2825

> <Gold.Score>
     Score         DG    S(hbond)    S(metal)    S(lipo)     H(rot)  DE(clash)    DE(int)     intcor
     36.30     -38.33       3.15        0.00     248.93       2.66       0.93       1.10       0.05

> <Gold.Chemscore.Fitness>
36.3021

> <Gold.Chemscore.DG>
-38.3273

> <Gold.Chemscore.ZeroCoef>
-5.4800

> <Gold.Chemscore.Hbond>
3.1497

> <Gold.Chemscore.Metal>
0.0000

> <Gold.Chemscore.Lipo>
248.9332

> <Gold.Chemscore.Internal_Hbond>
0.0000

> <Gold.Chemscore.DEClash>
0.9297

> <Gold.Chemscore.DEInternal>
1.0955

> <Gold.Chemscore.Rot>
2.6554

> <Gold.Chemscore.Internal.Correction>
0.0505

> <Gold.Chemscore.Hbonds>
donor molecule, donor type, donor heavy atom, donor atom, acceptor molecule, acceptor atom, score
      L1  H     2    25       P1  4098  1.00
      L1  H    11    31       P1  4098  0.98
      P1  H  2825  2830       L1     3  0.32
      P1  H  2768  2773       L1     3  0.85

> <Gold.Chemscore.Hbond.Weighted>
-10.5199

> <Gold.Chemscore.Metal.Weighted>
-0.0000

> <Gold.Chemscore.Lipo.Weighted>
-29.1252

> <Gold.Chemscore.Internal_Hbond.Weighted>
0.0000

> <Gold.Chemscore.DEClash.Weighted>
0.9297

> <Gold.Chemscore.DEInternal.Weighted>
1.0955

> <Gold.Chemscore.Rot.Weighted>
6.7978

> <Gold.Chemscore.Internal.Correction.Weighted>
0.0505

