#       Name:                C:\Users\porto\OneDrive\projekt\beta2\ligandy\L_4ldl.pdb L_4ldl.pdb 1
#       Creating user name   student
#       Creation time:       Mon Apr 01 15:22:31 2019


#       File generated by GOLD software.
#

@<TRIPOS>MOLECULE
C:\Users\porto\OneDrive\projekt\beta2\ligandy\L_4ldl.pdb L_4ldl.pdb 1|4ldl|mol2|1|dock1
    55    56     1
SMALL
GASTEIGER


@<TRIPOS>ATOM
      1 CAA        -32.3035   6.9233   5.4914 C.3            1 <1>               -0.0467
      2 CAB        -32.5735   7.3723   6.9240 C.3            1 <1>                0.0176
      3 CAC        -31.6596   6.6311   7.8922 C.3            1 <1>               -0.0467
      4 CAD        -34.0452   7.1900   7.3027 C.3            1 <1>               -0.0098
      5 CAE        -34.4267   5.7489   7.5818 C.ar           1 <1>               -0.0454
      6 CAF        -34.8093   5.3402   8.8573 C.ar           1 <1>               -0.0551
      7 CAG        -35.1478   4.0146   9.0977 C.ar           1 <1>               -0.0199
      8 CAH        -35.0926   3.0840   8.0647 C.ar           1 <1>                0.1169
      9 CAJ        -34.7009   3.4852   6.7932 C.ar           1 <1>               -0.0199
     10 CAK        -34.3622   4.8115   6.5548 C.ar           1 <1>               -0.0551
     11 CAM        -31.0661   9.2557   6.3034 C.3            1 <1>                0.0266
     12 CAN        -30.6533  10.6328   6.8084 C.3            1 <1>                0.0927
     13 CAP        -29.2994  10.9311   6.2878 C.ar           1 <1>               -0.0143
     14 CAQ        -28.3100   9.9552   6.2680 C.ar           1 <1>               -0.0524
     15 CAR        -27.0468  10.2624   5.7730 C.ar           1 <1>               -0.0162
     16 CAS        -26.7750  11.5390   5.2927 C.ar           1 <1>                0.1582
     17 CAU        -27.7628  12.5071   5.3073 C.ar           1 <1>                0.1586
     18 CAW        -29.0248  12.2043   5.8032 C.ar           1 <1>               -0.0109
     19 NAL        -32.2438   8.7805   7.0044 N.3            1 <1>               -0.3080
     20 OAI        -35.4223   1.7834   8.2992 O.3            1 <1>               -0.5068
     21 OAO        -31.6073  11.6147   6.3883 O.3            1 <1>               -0.3859
     22 OAT        -25.5372  11.8389   4.8057 O.3            1 <1>               -0.5033
     23 OAV        -27.5000  13.7578   4.8372 O.3            1 <1>               -0.5033
     24 HAA1       -32.9635   7.4611   4.8109 H              1 <1>                0.0247
     25 HAA2       -31.2663   7.1345   5.2335 H              1 <1>                0.0247
     26 HAA3       -32.4876   5.8526   5.4051 H              1 <1>                0.0247
     27 HAC1       -31.8633   6.9617   8.9103 H              1 <1>                0.0247
     28 HAC2       -31.8411   5.5594   7.8156 H              1 <1>                0.0247
     29 HAC3       -30.6197   6.8414   7.6441 H              1 <1>                0.0247
     30 HAD1       -34.6750   7.5825   6.5048 H              1 <1>                0.0331
     31 HAD2       -34.2724   7.8000   8.1770 H              1 <1>                0.0331
     32 HAF        -34.8438   6.0553   9.6658 H              1 <1>                0.0621
     33 HAG        -35.4537   3.7062  10.0870 H              1 <1>                0.0654
     34 HAJ        -34.6592   2.7655   5.9886 H              1 <1>                0.0654
     35 HAK        -34.0480   5.1140   5.5670 H              1 <1>                0.0621
     36 HAM1       -30.2460   8.5529   6.4531 H              1 <1>                0.0453
     37 HAM2       -31.2761   9.3094   5.2356 H              1 <1>                0.0453
     38 HAN        -30.6189  10.6158   7.8974 H              1 <1>                0.0656
     39 HAQ        -28.5231   8.9630   6.6359 H              1 <1>                0.0622
     40 HAR        -26.2732   9.5085   5.7608 H              1 <1>                0.0655
     41 HAW        -29.7939  12.9623   5.8114 H              1 <1>                0.0659
     42 HNAL       -33.0054   9.3274   6.6291 H              1 <1>                0.1225
     43 HOAI       -35.2001   1.2527   7.5308 H              1 <1>                0.2921
     44 HOAO       -32.4685  11.2023   6.2866 H              1 <1>                0.2103
     45 HOAT       -24.9897  12.1852   5.5142 H              1 <1>                0.2923
     46 HOAV       -26.7263  14.1112   5.2820 H              1 <1>                0.2923
     47 ****       -32.0614   8.8911   7.9814 LP             1 <1>                0.0000
     48 ****       -36.4038   1.7156   8.4783 LP             1 <1>                0.0000
     49 ****       -34.9147   1.4490   9.0932 LP             1 <1>                0.0000
     50 ****       -31.3199  12.0059   5.5141 LP             1 <1>                0.0000
     51 ****       -31.6641  12.3393   7.0752 LP             1 <1>                0.0000
     52 ****       -25.6206  12.5251   4.0832 LP             1 <1>                0.0000
     53 ****       -25.1163  11.0119   4.4331 LP             1 <1>                0.0000
     54 ****       -28.2854  14.3515   5.0124 LP             1 <1>                0.0000
     55 ****       -27.3278  13.7145   3.8531 LP             1 <1>                0.0000
@<TRIPOS>BOND
    1    1    2 1     
    2    1   24 1     
    3    1   25 1     
    4    1   26 1     
    5    2    3 1     
    6    2    4 1     
    7    2   19 1     
    8    3   27 1     
    9    3   28 1     
   10    3   29 1     
   11    4    5 1     
   12    4   30 1     
   13    4   31 1     
   14    5    6 ar    
   15    5   10 ar    
   16    6    7 ar    
   17    6   32 1     
   18    7    8 ar    
   19    7   33 1     
   20    8    9 ar    
   21    8   20 1     
   22    9   10 ar    
   23    9   34 1     
   24   10   35 1     
   25   11   12 1     
   26   11   19 1     
   27   11   36 1     
   28   11   37 1     
   29   12   13 1     
   30   12   21 1     
   31   12   38 1     
   32   13   14 ar    
   33   13   18 ar    
   34   14   15 ar    
   35   14   39 1     
   36   15   16 ar    
   37   15   40 1     
   38   16   17 ar    
   39   16   22 1     
   40   17   18 ar    
   41   17   23 1     
   42   18   41 1     
   43   19   42 1     
   44   20   43 1     
   45   21   44 1     
   46   22   45 1     
   47   23   46 1     
   48   19   47 1     
   49   20   48 1     
   50   20   49 1     
   51   21   50 1     
   52   21   51 1     
   53   22   52 1     
   54   22   53 1     
   55   23   54 1     
   56   23   55 1     
@<TRIPOS>SUBSTRUCTURE
      1 ****           1
@<TRIPOS>SET
LONE_PAIRS      STATIC     ATOMS    <user>   **** ""
9 47 48 49 50 51 52 53 54 55
DONOR_HYDROGENS      STATIC     ATOMS    <user>   **** ""
5 42 43 44 45 46
ATOM$BLUE        STATIC     ATOMS    COLORGROUP SYSTEM
9 47 48 49 50 51 52 53 54 55
ATOM$RED        STATIC     ATOMS    COLORGROUP SYSTEM
5 42 43 44 45 46
@<TRIPOS>COMMENT
> <Gold.Version>
5.5

> <Gold.Id.Protein>
unknown|dok_beta2|pdb

> <Gold.Protein.RotatedTorsions>
[ 4175 4166 4165 4163 ] final -131.79 input -179.98 | X-H torsion
[ 1294 1290 1288 1285 ] final  -84.64 input -179.99 | X-H torsion
[ 4033 4024 4023 4021 ] final -100.38 input  179.98 | X-H torsion
[ 1412 1408 1406 1403 ] final   -0.07 input -179.99 | X-H torsion
[ 2830 2825 2824 2821 ] final  151.44 input -179.98 | X-H torsion
[ 2723 2714 2713 2711 ] final   59.22 input -179.98 | X-H torsion
[ 2773 2768 2767 2764 ] final  -68.80 input  180.00 | X-H torsion

> <Gold.Protein.ActiveResidues>
 TRP109  THR110  ASP113  VAL114  VAL117  THR118  PHE193  TYR199  SER203  SER207 
 PHE208  TRP286  PHE289  PHE290  ASN293  TYR308  ASN312  TYR316 

> <Gold.Protein.RotatedAtoms>
  -34.3422    4.4025    2.6474 H   0  0  0  0  0  0  0  0  0  0  0  0  # atno 1294 bound_to 1290
  -27.7437   15.1103    3.3632 H   0  0  0  0  0  0  0  0  0  0  0  0  # atno 1412 bound_to 1408
  -26.6747    7.2492    1.2745 H   0  0  0  0  0  0  0  0  0  0  0  0  # atno 2723 bound_to 2714
  -24.2563   10.5150    3.8720 H   0  0  0  0  0  0  0  0  0  0  0  0  # atno 2773 bound_to 2768
  -24.5648   12.7582    3.0239 H   0  0  0  0  0  0  0  0  0  0  0  0  # atno 2830 bound_to 2825
  -27.9062    5.6058   11.2080 H   0  0  0  0  0  0  0  0  0  0  0  0  # atno 4033 bound_to 4024
  -36.0600    8.9805    8.0329 H   0  0  0  0  0  0  0  0  0  0  0  0  # atno 4175 bound_to 4166
  -37.2869    9.1669    7.0225 LP  0  0  0  0  0  0  0  0  0  0  0  0  # atno 4597 bound_to 4166
  -37.4405    8.2390    8.3575 LP  0  0  0  0  0  0  0  0  0  0  0  0  # atno 4598 bound_to 4166
  -34.1839    3.5345    1.3122 LP  0  0  0  0  0  0  0  0  0  0  0  0  # atno 4603 bound_to 1290
  -35.4665    4.5247    1.5150 LP  0  0  0  0  0  0  0  0  0  0  0  0  # atno 4604 bound_to 1290
  -28.5020    7.0733   11.4398 LP  0  0  0  0  0  0  0  0  0  0  0  0  # atno 4607 bound_to 4024
  -29.3384    5.9599   10.5869 LP  0  0  0  0  0  0  0  0  0  0  0  0  # atno 4608 bound_to 4024
  -26.5421   14.9457    2.3189 LP  0  0  0  0  0  0  0  0  0  0  0  0  # atno 4611 bound_to 1408
  -28.0621   14.5049    1.9164 LP  0  0  0  0  0  0  0  0  0  0  0  0  # atno 4612 bound_to 1408
  -23.2558   13.5752    2.6003 LP  0  0  0  0  0  0  0  0  0  0  0  0  # atno 4613 bound_to 2825
  -24.7243   13.9972    2.0241 LP  0  0  0  0  0  0  0  0  0  0  0  0  # atno 4614 bound_to 2825

> <Gold.Score>
     Score     S(PLP)   S(hbond)     S(cho)   S(metal)  DE(clash)   DE(tors)     intcor
     73.12     -66.12       3.19       0.00       0.00       1.34       1.03       0.83

> <Gold.PLP.Fitness>
73.1215

> <Gold.PLP.PLP>
-66.1195

> <Gold.PLP.part.hbond>
-5.9365

> <Gold.PLP.part.metal>
0.0000

> <Gold.PLP.part.buried>
-5.1944

> <Gold.PLP.part.nonpolar>
-55.3591

> <Gold.PLP.part.repulsive>
0.0000

> <Gold.PLP.ligand.clash>
1.3406

> <Gold.PLP.ligand.torsion>
1.0302

> <Gold.PLP.Chemscore.Hbond>
3.1896

> <Gold.PLP.Chemscore.CHOScore>
0.0000

> <Gold.PLP.Chemscore.Metal>
0.0000

> <Gold.Chemscore.Hbonds>
donor molecule, donor type, donor heavy atom, donor atom, acceptor molecule, acceptor atom, score
      L1  H    21    44       P1  1334  1.00
      P1  H  1408  1412       L1    23  0.72
      P1  H  2825  2830       L1    22  0.47
      P1  H  2768  2773       L1    22  1.00

> <Gold.PLP.Chemscore.Internal.Correction>
0.8344

