#       Name:                plp ligand
#       Creating user name   student
#       Creation time:       Mon Mar 18 16:43:14 2019


#       File generated by GOLD software.
#

@<TRIPOS>MOLECULE
plp ligand
    30    31     1
SMALL
GASTEIGER


@<TRIPOS>ATOM
      1 C           -2.7516   0.1129  -1.3006 NONPOLAR       1 <1>               -0.0287
      2 C           -1.2272   0.0107  -1.4032 NONPOLAR       1 <1>                0.0962
      3 H           -0.9180   0.0516  -2.4546 0ÿ˜o_          1 <1>                0.0719
      4 N           -0.7228   1.1993  -0.7502 DONOR          1 <1>               -0.2315
      5 C            0.0985   1.1645   0.3178 NONPOLAR       1 <1>                0.3707
      6 N            0.5370   0.0979   0.8950 ACCEPTOR       1 <1>               -0.0765
      7 C            0.1274  -1.1392   0.3725 NONPOLAR       1 <1>                0.1493
      8 C            0.5775  -2.2896   1.0297 NONPOLAR       1 <1>               -0.0178
      9 C            0.2703  -3.5599   0.5426 NONPOLAR       1 <1>               -0.0386
     10 C           -0.4662  -3.6875  -0.6331 NONPOLAR       1 <1>                0.0598
     11 CL          -0.7810  -5.2936  -1.1943 NONPOLAR       1 <1>               -0.0820
     12 C           -0.9248  -2.5432  -1.3049 NONPOLAR       1 <1>                0.0689
     13 CL          -1.7486  -2.7183  -2.8277 NONPOLAR       1 <1>               -0.0815
     14 C           -0.6754  -1.2541  -0.7786 NONPOLAR       1 <1>                0.0484
     15 N            0.4205   2.4282   0.6954 DONOR          1 <1>               -0.2326
     16 C           -0.0916   3.5996  -0.0076 NONPOLAR       1 <1>                0.1182
     17 C           -1.5796   3.8204   0.2601 NONPOLAR       1 <1>                0.2673
     18 F           -1.7860   4.0005   1.5947 NONPOLAR       1 <1>               -0.2060
     19 F           -1.9783   4.9762  -0.3364 NONPOLAR       1 <1>               -0.2060
     20 H           -3.1002   1.0646  -1.7219 0ÿ˜o_          1 <1>                0.0264
     21 H           -3.0773   0.0857  -0.2521 0ÿ˜o_          1 <1>                0.0264
     22 H           -3.2753  -0.6854  -1.8273 0ÿ˜o_          1 <1>                0.0264
     23 H           -0.7763   2.0640  -1.2692 0ÿ˜o_          1 <1>                0.2450
     24 H            1.1772  -2.1873   1.9313 0ÿ˜o_          1 <1>                0.0654
     25 H            0.6244  -4.4378   1.0768 0ÿ˜o_          1 <1>                0.0634
     26 H            1.3673   2.5296   1.0387 0ÿ˜o_          1 <1>                0.2446
     27 H            0.0983   3.5306  -1.0848 0ÿ˜o_          1 <1>                0.0689
     28 H            0.4581   4.4782   0.3487 0ÿ˜o_          1 <1>                0.0689
     29 H           -2.2146   3.0019  -0.0878 0ÿ˜o_          1 <1>                0.1049
     30 ****         1.1466   0.1500   1.6860 0ÿ˜o_          1 <1>                0.0000
@<TRIPOS>BOND
    1    1    2 1     
    2    2    3 1     
    3    2    4 1     
    4    4    5 1     
    5    5    6 2     
    6    6    7 1     
    7    7    8 ar    
    8    8    9 ar    
    9    9   10 ar    
   10   10   11 1     
   11   10   12 ar    
   12   12   13 1     
   13   12   14 ar    
   14    2   14 1     
   15    7   14 ar    
   16    5   15 1     
   17   15   16 1     
   18   16   17 1     
   19   17   18 1     
   20   17   19 1     
   21    1   20 1     
   22    1   21 1     
   23    1   22 1     
   24    4   23 1     
   25    8   24 1     
   26    9   25 1     
   27   15   26 1     
   28   16   27 1     
   29   16   28 1     
   30   17   29 1     
   31    6   30 1     
@<TRIPOS>SUBSTRUCTURE
      1 ****           1
@<TRIPOS>SET
LONE_PAIRS      STATIC     ATOMS    <user>   **** ""
1 30
DONOR_HYDROGENS      STATIC     ATOMS    <user>   **** ""
2 23 26
ATOM$BLUE        STATIC     ATOMS    COLORGROUP SYSTEM
1 30
ATOM$RED        STATIC     ATOMS    COLORGROUP SYSTEM
2 23 26
