#       Name:                C:\Users\porto\OneDrive\projekt\beta2\ligandy\L_3d4s.pdb L_3d4s.pdb 1
#       Creating user name   student
#       Creation time:       Wed Apr 10 09:49:50 2019


#       File generated by GOLD software.
#

@<TRIPOS>MOLECULE
C:\Users\porto\OneDrive\projekt\beta2\ligandy\L_3d4s.pdb L_3d4s.pdb 1|3d4s|mol2|1|dock8
    54    55     1
SMALL
GASTEIGER


@<TRIPOS>ATOM
      1 O1         -26.2232   7.1151   6.6830 O.3            1 <1>               -0.3767
      2 C2         -27.3496   7.5500   7.4312 C.3            1 <1>                0.0634
      3 C3         -28.0506   8.8002   6.8700 C.3            1 <1>                0.0372
      4 N4         -27.1729   9.7555   6.2415 N.pl3          1 <1>               -0.3060
      5 C5         -25.9236   9.2866   5.6762 C.3            1 <1>                0.0372
      6 C6         -25.2904   8.1634   6.5000 C.3            1 <1>                0.0634
      7 C7         -27.5735  11.0360   5.9466 C.ar           1 <1>                0.1942
      8 N8         -26.7190  11.9158   5.3980 N.ar           1 <1>               -0.1717
      9 S9         -27.4872  13.3438   5.1485 S.2            1 <1>                0.1206
     10 N10        -28.9685  12.9514   5.7233 N.ar           1 <1>               -0.1530
     11 C11        -28.9369  11.6904   6.1275 C.ar           1 <1>                0.2652
     12 O12        -30.0164  11.0528   6.6901 O.3            1 <1>               -0.4710
     13 C13        -31.2056  11.8437   6.9807 C.3            1 <1>                0.1183
     14 C14        -32.0284  10.8282   7.7875 C.3            1 <1>                0.1016
     15 O15        -33.2938  11.2994   8.1500 O.3            1 <1>               -0.3872
     16 C16        -32.1295   9.5297   7.0079 C.3            1 <1>                0.0256
     17 N17        -33.1919   8.6008   7.3176 N.3            1 <1>               -0.3088
     18 C18        -32.7508   7.2618   6.8521 C.3            1 <1>                0.0108
     19 C19        -31.5543   6.7716   7.6539 C.3            1 <1>               -0.0473
     20 C20        -33.9175   6.2590   7.0445 C.3            1 <1>               -0.0473
     21 C21        -32.3628   7.3396   5.3613 C.3            1 <1>               -0.0473
     22 H21        -27.0484   7.7379   8.4616 H              1 <1>                0.0575
     23 H22        -28.0699   6.7357   7.5054 H              1 <1>                0.0575
     24 H31        -28.6059   9.2914   7.6694 H              1 <1>                0.0487
     25 H32        -28.8190   8.4948   6.1592 H              1 <1>                0.0487
     26 H51        -25.2247  10.1196   5.6019 H              1 <1>                0.0487
     27 H52        -26.0951   8.9366   4.6579 H              1 <1>                0.0487
     28 H61        -24.4123   7.7819   5.9787 H              1 <1>                0.0575
     29 H62        -24.9862   8.5530   7.4716 H              1 <1>                0.0575
     30 H131       -31.7249  12.0623   6.0472 H              1 <1>                0.0724
     31 H132       -30.9307  12.6760   7.6291 H              1 <1>                0.0724
     32 H14        -31.4807  10.6175   8.7065 H              1 <1>                0.0640
     33 HO15       -33.8367  11.3969   7.3644 H              1 <1>                0.2100
     34 H161       -31.1747   9.0077   7.0625 H              1 <1>                0.0451
     35 H162       -32.1550   9.7565   5.9422 H              1 <1>                0.0451
     36 HN17       -33.3552   8.5946   8.3139 H              1 <1>                0.1225
     37 H191       -30.6395   6.9483   7.0879 H              1 <1>                0.0247
     38 H192       -31.5055   7.3106   8.6004 H              1 <1>                0.0247
     39 H193       -31.6594   5.7043   7.8491 H              1 <1>                0.0247
     40 H201       -34.1381   6.1569   8.1073 H              1 <1>                0.0247
     41 H202       -34.8017   6.6255   6.5233 H              1 <1>                0.0247
     42 H203       -33.6335   5.2880   6.6378 H              1 <1>                0.0247
     43 H211       -33.1079   7.9237   4.8218 H              1 <1>                0.0247
     44 H212       -31.3869   7.8160   5.2637 H              1 <1>                0.0247
     45 H213       -32.3191   6.3337   4.9439 H              1 <1>                0.0247
     46 ****       -26.5314   6.7936   5.7876 LP             1 <1>                0.0000
     47 ****       -25.7779   6.3646   7.1714 LP             1 <1>                0.0000
     48 ****       -25.7620  11.7290   5.1759 LP             1 <1>                0.0000
     49 ****       -29.7615  13.5594   5.7626 LP             1 <1>                0.0000
     50 ****       -29.7081  10.6520   7.5528 LP             1 <1>                0.0000
     51 ****       -30.2906  10.3237   6.0630 LP             1 <1>                0.0000
     52 ****       -33.2019  12.1858   8.6037 LP             1 <1>                0.0000
     53 ****       -33.7254  10.6484   8.7746 LP             1 <1>                0.0000
     54 ****       -34.0461   8.8609   6.8673 LP             1 <1>                0.0000
@<TRIPOS>BOND
    1    1    2 1     
    2    1    6 1     
    3    2    3 1     
    4    2   22 1     
    5    2   23 1     
    6    3    4 1     
    7    3   24 1     
    8    3   25 1     
    9    4    7 1     
   10    4    5 1     
   11    5    6 1     
   12    5   26 1     
   13    5   27 1     
   14    6   28 1     
   15    6   29 1     
   16    7    8 ar    
   17    7   11 ar    
   18    8    9 ar    
   19    9   10 ar    
   20   10   11 ar    
   21   11   12 1     
   22   12   13 1     
   23   13   14 1     
   24   13   30 1     
   25   13   31 1     
   26   14   15 1     
   27   14   16 1     
   28   14   32 1     
   29   15   33 1     
   30   16   17 1     
   31   16   34 1     
   32   16   35 1     
   33   17   18 1     
   34   17   36 1     
   35   18   19 1     
   36   18   20 1     
   37   18   21 1     
   38   19   37 1     
   39   19   38 1     
   40   19   39 1     
   41   20   40 1     
   42   20   41 1     
   43   20   42 1     
   44   21   43 1     
   45   21   44 1     
   46   21   45 1     
   47    1   46 1     
   48    1   47 1     
   49    8   48 1     
   50   10   49 1     
   51   12   50 1     
   52   12   51 1     
   53   15   52 1     
   54   15   53 1     
   55   17   54 1     
@<TRIPOS>SUBSTRUCTURE
      1 ****           1
@<TRIPOS>SET
LONE_PAIRS      STATIC     ATOMS    <user>   **** ""
9 46 47 48 49 50 51 52 53 54
DONOR_HYDROGENS      STATIC     ATOMS    <user>   **** ""
2 33 36
ATOM$BLUE        STATIC     ATOMS    COLORGROUP SYSTEM
9 46 47 48 49 50 51 52 53 54
ATOM$RED        STATIC     ATOMS    COLORGROUP SYSTEM
2 33 36
@<TRIPOS>COMMENT
> <Gold.Version>
5.6

> <Gold.Id.Protein>
unknown|dok_beta2|pdb

> <Gold.Protein.RotatedTorsions>
[ 4175 4166 4165 4163 ] final -138.74 input -179.98 | X-H torsion
[ 1294 1290 1288 1285 ] final  -47.41 input -179.99 | X-H torsion
[ 4033 4024 4023 4021 ] final   37.53 input  179.98 | X-H torsion
[ 1412 1408 1406 1403 ] final  -96.24 input -179.99 | X-H torsion
[ 2830 2825 2824 2821 ] final  161.24 input -179.98 | X-H torsion
[ 2723 2714 2713 2711 ] final  -83.99 input -179.98 | X-H torsion
[ 2773 2768 2767 2764 ] final  -40.99 input  180.00 | X-H torsion

> <Gold.Protein.ActiveResidues>
 TRP109  THR110  ASP113  VAL114  VAL117  THR118  PHE193  TYR199  SER203  SER207 
 PHE208  TRP286  PHE289  PHE290  ASN293  TYR308  ASN312  TYR316 

> <Gold.Protein.RotatedAtoms>
  -34.8361    4.6858    2.5493 H   0  0  0  0  0  0  0  0  0  0  0  0  # atno 1294 bound_to 1290
  -26.5864   15.0815    2.6748 H   0  0  0  0  0  0  0  0  0  0  0  0  # atno 1412 bound_to 1408
  -26.0349    8.4033    2.3735 H   0  0  0  0  0  0  0  0  0  0  0  0  # atno 2723 bound_to 2714
  -24.0024   10.7986    3.6619 H   0  0  0  0  0  0  0  0  0  0  0  0  # atno 2773 bound_to 2768
  -24.6977   12.8079    2.9628 H   0  0  0  0  0  0  0  0  0  0  0  0  # atno 2830 bound_to 2825
  -29.3850    6.2306   10.6806 H   0  0  0  0  0  0  0  0  0  0  0  0  # atno 4033 bound_to 4024
  -36.0560    9.0414    7.9418 H   0  0  0  0  0  0  0  0  0  0  0  0  # atno 4175 bound_to 4166
  -37.3834    9.1125    7.0508 LP  0  0  0  0  0  0  0  0  0  0  0  0  # atno 4597 bound_to 4166
  -37.3482    8.2298    8.4242 LP  0  0  0  0  0  0  0  0  0  0  0  0  # atno 4598 bound_to 4166
  -33.8862    3.6182    1.8287 LP  0  0  0  0  0  0  0  0  0  0  0  0  # atno 4603 bound_to 1290
  -35.2494    4.1457    1.1006 LP  0  0  0  0  0  0  0  0  0  0  0  0  # atno 4604 bound_to 1290
  -28.0551    5.4176   11.0447 LP  0  0  0  0  0  0  0  0  0  0  0  0  # atno 4607 bound_to 4024
  -28.2451    6.9648   11.5314 LP  0  0  0  0  0  0  0  0  0  0  0  0  # atno 4608 bound_to 4024
  -27.7278   14.4965    1.7175 LP  0  0  0  0  0  0  0  0  0  0  0  0  # atno 4611 bound_to 1408
  -28.0823   14.9841    3.2351 LP  0  0  0  0  0  0  0  0  0  0  0  0  # atno 4612 bound_to 1408
  -23.2551   13.4477    2.6987 LP  0  0  0  0  0  0  0  0  0  0  0  0  # atno 4613 bound_to 2825
  -24.5865   14.0728    1.9893 LP  0  0  0  0  0  0  0  0  0  0  0  0  # atno 4614 bound_to 2825

> <Gold.Score>
     Fitness  S(hb_ext) S(vdw_ext)  S(hb_int)    S(int)      intcor
     70.40       7.10      46.82       0.00      -1.08     -20.67

> <Gold.Goldscore.Fitness>
70.4022

> <Gold.Goldscore.Internal.Vdw>
-17.1399

> <Gold.Goldscore.Internal.Torsion>
-4.6042

> <Gold.Goldscore.External.Vdw>
46.8201

> <Gold.Goldscore.Internal.HBond>
0.0000

> <Gold.Goldscore.External.HBond>
7.1010

> <Gold.Goldscore.Internal.Correction>
-20.6677

> <Gold.Goldscore.Hbonds>
donor molecule, donor type, donor heavy atom, donor atom, acceptor molecule, acceptor atom, score
      P1  H  4166  4175       L1    17  0.25
      P1  H  4097  4104       L1    15  0.56
      L1  H    15    33       P1  1334  0.58
      L1  H    17    36       P1  4098  1.00

> <Gold.Goldscore.Internal.Vdw.Weighted>
-17.1399

> <Gold.Goldscore.Internal.Torsion.Weighted>
-4.6042

> <Gold.Goldscore.External.Vdw.Weighted>
64.3777

> <Gold.Goldscore.Internal.HBond.Weighted>
0.0000

> <Gold.Goldscore.External.HBond.Weighted>
7.1010

> <Gold.Goldscore.Internal.Correction.Weighted>
-20.6677

