#       Name:                C:\Users\porto\OneDrive\projekt\beta2\ligandy\L_3nya.pdb L_3nya.pdb 1
#       Creating user name   student
#       Creation time:       Mon Apr 08 16:06:02 2019


#       File generated by GOLD software.
#

@<TRIPOS>MOLECULE
C:\Users\porto\OneDrive\projekt\beta2\ligandy\L_3nya.pdb L_3nya.pdb 1|3nya|mol2|1|dock51
    46    46     1
SMALL
GASTEIGER


@<TRIPOS>ATOM
      1 C1         -32.0084   7.4276   4.7035 C.3            1 <1>               -0.0499
      2 N1         -32.8873   8.1513   6.9027 N.3            1 <1>               -0.3112
      3 O1         -33.1210  10.3696   8.1058 O.3            1 <1>               -0.3872
      4 C2         -32.7159   7.0007   5.9908 C.3            1 <1>                0.0021
      5 O2         -29.7963  10.5156   6.6106 O.3            1 <1>               -0.4891
      6 C3         -34.0860   6.4019   5.6912 C.3            1 <1>               -0.0499
      7 C4         -31.5856   8.6426   7.3741 C.3            1 <1>                0.0254
      8 C5         -31.7376  10.0495   7.9272 C.3            1 <1>                0.1015
      9 C6         -31.0958  11.0032   6.9385 C.3            1 <1>                0.1166
     10 C7         -28.8108  11.3358   6.1194 C.ar           1 <1>                0.1241
     11 C8         -29.0672  12.6876   5.8985 C.ar           1 <1>               -0.0197
     12 C9         -28.0712  13.5165   5.3998 C.ar           1 <1>               -0.0583
     13 C10        -26.8115  13.0036   5.1218 C.ar           1 <1>               -0.0613
     14 C11        -26.5479  11.6626   5.3431 C.ar           1 <1>               -0.0548
     15 C12        -27.5444  10.8263   5.8426 C.ar           1 <1>               -0.0020
     16 C13        -27.2257   9.3687   6.0768 C.3            1 <1>               -0.0063
     17 C14        -25.7518   9.2304   6.3570 C.2            1 <1>               -0.0867
     18 C15        -25.2608   8.0923   6.8066 C.2            1 <1>               -0.1023
     19 H11        -31.8932   6.5638   4.0482 H              1 <1>                0.0245
     20 H12        -32.6007   8.1906   4.1988 H              1 <1>                0.0245
     21 H13        -31.0255   7.8326   4.9451 H              1 <1>                0.0245
     22 HN1        -33.3602   8.8997   6.4162 H              1 <1>                0.1223
     23 HO1        -33.5781  10.2947   7.2650 H              1 <1>                0.2100
     24 H2         -32.1072   6.2469   6.4907 H              1 <1>                0.0455
     25 H31        -34.5663   6.1072   6.6237 H              1 <1>                0.0245
     26 H32        -34.7038   7.1432   5.1834 H              1 <1>                0.0245
     27 H33        -33.9688   5.5274   5.0515 H              1 <1>                0.0245
     28 H41        -30.8789   8.6534   6.5438 H              1 <1>                0.0450
     29 H42        -31.2103   7.9832   8.1572 H              1 <1>                0.0450
     30 H5         -31.2223  10.1203   8.8853 H              1 <1>                0.0640
     31 H61        -31.7038  11.0526   6.0346 H              1 <1>                0.0723
     32 H62        -31.0093  11.9912   7.3903 H              1 <1>                0.0723
     33 H8         -30.0438  13.0948   6.1158 H              1 <1>                0.0654
     34 H9         -28.2753  14.5628   5.2274 H              1 <1>                0.0619
     35 H10        -26.0390  13.6498   4.7337 H              1 <1>                0.0618
     36 H11        -25.5679  11.2622   5.1285 H              1 <1>                0.0622
     37 H131       -27.4818   8.7931   5.1866 H              1 <1>                0.0357
     38 H132       -27.7937   9.0061   6.9330 H              1 <1>                0.0357
     39 H14        -25.0960  10.0714   6.1865 H              1 <1>                0.0570
     40 H151       -24.2027   8.0018   7.0049 H              1 <1>                0.0532
     41 H152       -25.9167   7.2512   6.9771 H              1 <1>                0.0532
     42 ****       -33.4271   7.8510   7.6891 LP             1 <1>                0.0000
     43 ****       -33.2051  11.3052   8.4487 LP             1 <1>                0.0000
     44 ****       -33.5275   9.7357   8.7637 LP             1 <1>                0.0000
     45 ****       -29.9312   9.7999   5.9254 LP             1 <1>                0.0000
     46 ****       -29.4305  10.1103   7.4484 LP             1 <1>                0.0000
@<TRIPOS>BOND
    1    1    4 1     
    2    1   19 1     
    3    1   20 1     
    4    1   21 1     
    5    2    4 1     
    6    2    7 1     
    7    2   22 1     
    8    3    8 1     
    9    3   23 1     
   10    4    6 1     
   11    4   24 1     
   12    5    9 1     
   13    5   10 1     
   14    6   25 1     
   15    6   26 1     
   16    6   27 1     
   17    7    8 1     
   18    7   28 1     
   19    7   29 1     
   20    8    9 1     
   21    8   30 1     
   22    9   31 1     
   23    9   32 1     
   24   10   11 ar    
   25   10   15 ar    
   26   11   12 ar    
   27   11   33 1     
   28   12   13 ar    
   29   12   34 1     
   30   13   14 ar    
   31   13   35 1     
   32   14   15 ar    
   33   14   36 1     
   34   15   16 1     
   35   16   17 1     
   36   16   37 1     
   37   16   38 1     
   38   17   18 2     
   39   17   39 1     
   40   18   40 1     
   41   18   41 1     
   42    2   42 1     
   43    3   43 1     
   44    3   44 1     
   45    5   45 1     
   46    5   46 1     
@<TRIPOS>SUBSTRUCTURE
      1 ****           1
@<TRIPOS>SET
LONE_PAIRS      STATIC     ATOMS    <user>   **** ""
5 42 43 44 45 46
DONOR_HYDROGENS      STATIC     ATOMS    <user>   **** ""
2 22 23
ATOM$BLUE        STATIC     ATOMS    COLORGROUP SYSTEM
5 42 43 44 45 46
ATOM$RED        STATIC     ATOMS    COLORGROUP SYSTEM
2 22 23
@<TRIPOS>COMMENT
> <Gold.Version>
5.5

> <Gold.Id.Protein>
unknown|dok_beta2|pdb

> <Gold.Protein.RotatedTorsions>
[ 4175 4166 4165 4163 ] final -105.55 input -179.98 | X-H torsion
[ 1294 1290 1288 1285 ] final   12.99 input -179.99 | X-H torsion
[ 4033 4024 4023 4021 ] final  -62.90 input  179.98 | X-H torsion
[ 1412 1408 1406 1403 ] final   24.50 input -179.99 | X-H torsion
[ 2830 2825 2824 2821 ] final -178.35 input -179.98 | X-H torsion
[ 2723 2714 2713 2711 ] final -121.28 input -179.98 | X-H torsion
[ 2773 2768 2767 2764 ] final   85.43 input  180.00 | X-H torsion

> <Gold.Protein.ActiveResidues>
 TRP109  THR110  ASP113  VAL114  VAL117  THR118  PHE193  TYR199  SER203  SER207 
 PHE208  TRP286  PHE289  PHE290  ASN293  TYR308  ASN312  TYR316 

> <Gold.Protein.RotatedAtoms>
  -35.4015    4.6757    1.8360 H   0  0  0  0  0  0  0  0  0  0  0  0  # atno 1294 bound_to 1290
  -28.0677   14.9866    3.1961 H   0  0  0  0  0  0  0  0  0  0  0  0  # atno 1412 bound_to 1408
  -26.3122    8.1399    2.8076 H   0  0  0  0  0  0  0  0  0  0  0  0  # atno 2723 bound_to 2714
  -23.9231   10.1767    2.1731 H   0  0  0  0  0  0  0  0  0  0  0  0  # atno 2773 bound_to 2768
  -24.9229   12.9683    2.8007 H   0  0  0  0  0  0  0  0  0  0  0  0  # atno 2830 bound_to 2825
  -28.3268    5.3533   10.8954 H   0  0  0  0  0  0  0  0  0  0  0  0  # atno 4033 bound_to 4024
  -36.1862    8.7350    8.3371 H   0  0  0  0  0  0  0  0  0  0  0  0  # atno 4175 bound_to 4166
  -36.8861    9.3172    7.0210 LP  0  0  0  0  0  0  0  0  0  0  0  0  # atno 4597 bound_to 4166
  -37.7098    8.3445    8.0418 LP  0  0  0  0  0  0  0  0  0  0  0  0  # atno 4598 bound_to 4166
  -34.0782    4.1667    2.5784 LP  0  0  0  0  0  0  0  0  0  0  0  0  # atno 4603 bound_to 1290
  -34.4682    3.6078    1.0944 LP  0  0  0  0  0  0  0  0  0  0  0  0  # atno 4604 bound_to 1290
  -28.0014    6.7627   11.5809 LP  0  0  0  0  0  0  0  0  0  0  0  0  # atno 4607 bound_to 4024
  -29.4010    6.5335   10.7715 LP  0  0  0  0  0  0  0  0  0  0  0  0  # atno 4608 bound_to 4024
  -26.5504   15.0823    2.6960 LP  0  0  0  0  0  0  0  0  0  0  0  0  # atno 4611 bound_to 1408
  -27.7161   14.4973    1.7134 LP  0  0  0  0  0  0  0  0  0  0  0  0  # atno 4612 bound_to 1408
  -23.3399   13.1851    2.8869 LP  0  0  0  0  0  0  0  0  0  0  0  0  # atno 4613 bound_to 2825
  -24.2669   14.1683    1.9701 LP  0  0  0  0  0  0  0  0  0  0  0  0  # atno 4614 bound_to 2825

> <Gold.Score>
     Score     S(PLP)   S(hbond)     S(cho)   S(metal)  DE(clash)   DE(tors)     intcor
     73.79     -70.79       1.82       0.00       0.00       0.00       1.37       0.26

> <Gold.PLP.Fitness>
73.7901

> <Gold.PLP.PLP>
-70.7914

> <Gold.PLP.part.hbond>
-3.0814

> <Gold.PLP.part.metal>
0.0000

> <Gold.PLP.part.buried>
-8.5067

> <Gold.PLP.part.nonpolar>
-59.6967

> <Gold.PLP.part.repulsive>
0.0116

> <Gold.PLP.ligand.clash>
0.0000

> <Gold.PLP.ligand.torsion>
1.3684

> <Gold.PLP.Chemscore.Hbond>
1.8240

> <Gold.PLP.Chemscore.CHOScore>
0.0000

> <Gold.PLP.Chemscore.Metal>
0.0000

> <Gold.Chemscore.Hbonds>
donor molecule, donor type, donor heavy atom, donor atom, acceptor molecule, acceptor atom, score
      L1  H     3    23       P1  1334  0.93
      P1  H  4097  4104       L1     3  0.90

> <Gold.PLP.Chemscore.Internal.Correction>
0.2635

