#       Name:                C:\Users\porto\OneDrive\projekt\beta1\ligandy\L_4bvn.pdb L_4bvn.pdb 1
#       Creating user name   student
#       Creation time:       Mon Apr 08 15:32:12 2019


#       File generated by GOLD software.
#

@<TRIPOS>MOLECULE
C:\Users\porto\OneDrive\projekt\beta1\ligandy\L_4bvn.pdb L_4bvn.pdb 1|4bvn|mol2|1|dock1
    48    49     1
SMALL
GASTEIGER


@<TRIPOS>ATOM
      1 C1         -23.4179   4.9570  12.9138 C.2            1 <1>                0.1822
      2 N1         -23.8205   3.9191  13.6126 N.1            1 <1>               -0.3633
      3 O1         -23.2681   7.6255  16.1194 O.3            1 <1>               -0.4884
      4 C2         -23.2731   6.0232  13.7334 C.3            1 <1>                0.0496
      5 N2         -24.6253   9.9227  19.5981 N.3            1 <1>               -0.3088
      6 O2         -25.2277   9.2299  17.1809 O.3            1 <1>               -0.3872
      7 C3         -23.6155   5.6318  14.9613 C.ar           1 <1>                0.0656
      8 N3         -22.7850   4.9809  10.2097 N.1            1 <1>               -0.1885
      9 C4         -23.6644   6.2958  16.1337 C.ar           1 <1>                0.1336
     10 C5         -24.1130   5.6449  17.2489 C.ar           1 <1>               -0.0184
     11 C6         -24.4976   4.3024  17.1999 C.ar           1 <1>               -0.0489
     12 C7         -24.4538   3.6638  15.9505 C.ar           1 <1>                0.0031
     13 C8         -24.0112   4.3254  14.8677 C.ar           1 <1>               -0.0070
     14 C9         -23.0246   8.2193  17.3219 C.3            1 <1>                0.1166
     15 C10        -23.8074   9.5310  17.3479 C.3            1 <1>                0.1015
     16 C11        -23.5050  10.1462  18.6795 C.3            1 <1>                0.0256
     17 C12        -24.2985  10.3140  21.0365 C.3            1 <1>                0.0108
     18 C13        -23.8785  11.8151  21.1626 C.3            1 <1>               -0.0473
     19 C14        -23.1054   9.4580  21.5622 C.3            1 <1>               -0.0473
     20 C15        -25.4531  10.0931  22.0291 C.3            1 <1>               -0.0473
     21 C16        -23.0982   4.9572  11.4639 C.1            1 <1>                0.1289
     22 H21        -23.9383   6.8228  13.4092 H              1 <1>                0.0403
     23 H22        -22.2315   6.3433  13.7321 H              1 <1>                0.0403
     24 HN2        -24.8634   8.9417  19.5607 H              1 <1>                0.1225
     25 HO2        -25.4671   8.4908  17.7450 H              1 <1>                0.2100
     26 H5         -24.1755   6.1690  18.1913 H              1 <1>                0.0654
     27 H6         -24.8123   3.7969  18.1017 H              1 <1>                0.0625
     28 H7         -24.7766   2.6376  15.8571 H              1 <1>                0.0725
     29 H91        -21.9591   8.4308  17.4127 H              1 <1>                0.0723
     30 H92        -23.3769   7.5713  18.1247 H              1 <1>                0.0723
     31 H10        -23.4666  10.1866  16.5461 H              1 <1>                0.0640
     32 H111       -22.6030   9.6951  19.0914 H              1 <1>                0.0451
     33 H112       -23.3445  11.2172  18.5565 H              1 <1>                0.0451
     34 H131       -23.6564  12.0446  22.2050 H              1 <1>                0.0247
     35 H132       -22.9928  11.9976  20.5541 H              1 <1>                0.0247
     36 H133       -24.6932  12.4510  20.8173 H              1 <1>                0.0247
     37 H141       -22.8780   9.7431  22.5898 H              1 <1>                0.0247
     38 H142       -23.3731   8.4022  21.5297 H              1 <1>                0.0247
     39 H143       -22.2300   9.6300  20.9351 H              1 <1>                0.0247
     40 H151       -25.1378  10.3965  23.0278 H              1 <1>                0.0247
     41 H152       -26.3139  10.6881  21.7239 H              1 <1>                0.0247
     42 H153       -25.7271   9.0381  22.0400 H              1 <1>                0.0247
     43 ****       -23.9900   8.1490  15.6668 LP             1 <1>                0.0000
     44 ****       -22.4275   7.6823  15.5808 LP             1 <1>                0.0000
     45 ****       -25.3891  10.5010  19.3112 LP             1 <1>                0.0000
     46 ****       -25.4080   8.9925  16.2264 LP             1 <1>                0.0000
     47 ****       -25.7701  10.0312  17.4333 LP             1 <1>                0.0000
     48 ****       -22.5427   4.9992   9.2397 LP             1 <1>                0.0000
@<TRIPOS>BOND
    1    1    4 1     
    2    1   21 1     
    3    1    2 2     
    4    2   13 2     
    5    3    9 1     
    6    3   14 1     
    7    4    7 1     
    8    4   22 1     
    9    4   23 1     
   10    5   17 1     
   11    5   16 1     
   12    5   24 1     
   13    6   15 1     
   14    6   25 1     
   15    7    9 ar    
   16    7   13 ar    
   17    8   21 3     
   18    9   10 ar    
   19   10   11 ar    
   20   10   26 1     
   21   11   12 ar    
   22   11   27 1     
   23   12   13 ar    
   24   12   28 1     
   25   14   15 1     
   26   14   29 1     
   27   14   30 1     
   28   15   16 1     
   29   15   31 1     
   30   16   32 1     
   31   16   33 1     
   32   17   18 1     
   33   17   19 1     
   34   17   20 1     
   35   18   34 1     
   36   18   35 1     
   37   18   36 1     
   38   19   37 1     
   39   19   38 1     
   40   19   39 1     
   41   20   40 1     
   42   20   41 1     
   43   20   42 1     
   44    3   43 1     
   45    3   44 1     
   46    5   45 1     
   47    6   46 1     
   48    6   47 1     
   49    8   48 1     
@<TRIPOS>SUBSTRUCTURE
      1 ****           1
@<TRIPOS>SET
LONE_PAIRS      STATIC     ATOMS    <user>   **** ""
6 43 44 45 46 47 48
DONOR_HYDROGENS      STATIC     ATOMS    <user>   **** ""
2 24 25
ATOM$BLUE        STATIC     ATOMS    COLORGROUP SYSTEM
6 43 44 45 46 47 48
ATOM$RED        STATIC     ATOMS    COLORGROUP SYSTEM
2 24 25
@<TRIPOS>COMMENT
> <Gold.Version>
5.5

> <Gold.Id.Protein>
unknown|bialko_beta1|pdb

> <Gold.Protein.ActiveResidues>
 ALA86   ASP87   VAL90   VAL94   VAL95   GLY98   ALA99   LEU101  VAL102  CYS114 
 GLU115  TRP117  THR118  SER119  LEU120  ASP121  VAL122  CYS124  VAL125  THR126 
 SER128  SER173  PHE174  ILE177  CYS199  ASP200  PHE201  TYR207  SER215  PHE299 
 TRP303  PHE306  PHE307  ASN310  PHE325  VAL326  ASN329  TRP330  GLY332  TYR333 
 SER336 

> <Gold.Score>
     Score         DG    S(hbond)    S(metal)    S(lipo)     H(rot)  DE(clash)    DE(int)     intcor
     30.23     -31.33       1.97        0.00     217.39       2.41       0.08       1.02       0.14

> <Gold.Chemscore.Fitness>
30.2301

> <Gold.Chemscore.DG>
-31.3254

> <Gold.Chemscore.ZeroCoef>
-5.4800

> <Gold.Chemscore.Hbond>
1.9731

> <Gold.Chemscore.Metal>
0.0000

> <Gold.Chemscore.Lipo>
217.3946

> <Gold.Chemscore.Internal_Hbond>
0.0000

> <Gold.Chemscore.DEClash>
0.0755

> <Gold.Chemscore.DEInternal>
1.0197

> <Gold.Chemscore.Rot>
2.4140

> <Gold.Chemscore.Internal.Correction>
0.1438

> <Gold.Chemscore.Hbonds>
donor molecule, donor type, donor heavy atom, donor atom, acceptor molecule, acceptor atom, score
      L1  H     5    24       P1  2066  0.99
      L1  H     6    25       P1  2066  0.99

> <Gold.Chemscore.Hbond.Weighted>
-6.5902

> <Gold.Chemscore.Metal.Weighted>
-0.0000

> <Gold.Chemscore.Lipo.Weighted>
-25.4352

> <Gold.Chemscore.Internal_Hbond.Weighted>
0.0000

> <Gold.Chemscore.DEClash.Weighted>
0.0755

> <Gold.Chemscore.DEInternal.Weighted>
1.0197

> <Gold.Chemscore.Rot.Weighted>
6.1800

> <Gold.Chemscore.Internal.Correction.Weighted>
0.1438

