#       Name:                C:\Users\porto\OneDrive\projekt\beta2\ligandy\L_3nya.pdb L_3nya.pdb 1
#       Creating user name   student
#       Creation time:       Wed Apr 10 10:04:57 2019


#       File generated by GOLD software.
#

@<TRIPOS>MOLECULE
C:\Users\porto\OneDrive\projekt\beta2\ligandy\L_3nya.pdb L_3nya.pdb 1|3nya|mol2|1|dock1
    46    46     1
SMALL
GASTEIGER


@<TRIPOS>ATOM
      1 C1         -33.1226   6.6390   5.3647 C.3            1 <1>               -0.0499
      2 N1         -33.4534   8.1794   7.2753 N.3            1 <1>               -0.3112
      3 O1         -33.5161  10.8198   8.0136 O.3            1 <1>               -0.3872
      4 C2         -33.2031   6.7756   6.8861 C.3            1 <1>                0.0021
      5 O2         -29.9923  10.6554   7.0619 O.3            1 <1>               -0.4891
      6 C3         -34.3139   5.9009   7.4575 C.3            1 <1>               -0.0499
      7 C4         -32.3457   9.0451   6.8492 C.3            1 <1>                0.0254
      8 C5         -32.2304  10.2320   7.7906 C.3            1 <1>                0.1015
      9 C6         -31.2919  11.2361   7.1503 C.3            1 <1>                0.1166
     10 C7         -28.9673  11.2596   6.3767 C.ar           1 <1>                0.1241
     11 C8         -29.1493  12.5178   5.8061 C.ar           1 <1>               -0.0197
     12 C9         -28.1135  13.1278   5.1114 C.ar           1 <1>               -0.0583
     13 C10        -26.8877  12.4886   4.9845 C.ar           1 <1>               -0.0613
     14 C11        -26.6978  11.2405   5.5526 C.ar           1 <1>               -0.0548
     15 C12        -27.7346  10.6237   6.2501 C.ar           1 <1>               -0.0020
     16 C13        -27.4962   9.2634   6.8617 C.3            1 <1>               -0.0063
     17 C14        -26.6637   8.4409   5.9127 C.2            1 <1>               -0.0867
     18 C15        -25.4549   8.0427   6.2571 C.2            1 <1>               -0.1023
     19 H11        -32.2406   7.1650   4.9984 H              1 <1>                0.0245
     20 H12        -33.0547   5.5847   5.0973 H              1 <1>                0.0245
     21 H13        -34.0157   7.0709   4.9124 H              1 <1>                0.0245
     22 HN1        -34.3052   8.5034   6.8395 H              1 <1>                0.1223
     23 HO1        -33.9084  11.0611   7.1713 H              1 <1>                0.2100
     24 H2         -32.2528   6.4583   7.3162 H              1 <1>                0.0455
     25 H31        -34.3514   6.0210   8.5397 H              1 <1>                0.0245
     26 H32        -35.2700   6.1989   7.0260 H              1 <1>                0.0245
     27 H33        -34.1160   4.8570   7.2150 H              1 <1>                0.0245
     28 H41        -32.5325   9.4020   5.8361 H              1 <1>                0.0450
     29 H42        -31.4147   8.4777   6.8647 H              1 <1>                0.0450
     30 H5         -31.8128   9.9014   8.7418 H              1 <1>                0.0640
     31 H61        -31.6493  11.4803   6.1495 H              1 <1>                0.0723
     32 H62        -31.2467  12.1348   7.7652 H              1 <1>                0.0723
     33 H8         -30.0992  13.0230   5.9037 H              1 <1>                0.0654
     34 H9         -28.2600  14.1016   4.6684 H              1 <1>                0.0619
     35 H10        -26.0841  12.9646   4.4435 H              1 <1>                0.0618
     36 H11        -25.7443  10.7424   5.4558 H              1 <1>                0.0622
     37 H131       -28.4529   8.7674   7.0290 H              1 <1>                0.0357
     38 H132       -26.9641   9.3782   7.8055 H              1 <1>                0.0357
     39 H14        -27.0637   8.1772   4.9447 H              1 <1>                0.0570
     40 H151       -24.8648   7.4532   5.5706 H              1 <1>                0.0532
     41 H152       -25.0550   8.3064   7.2252 H              1 <1>                0.0532
     42 ****       -33.5345   8.2194   8.2712 LP             1 <1>                0.0000
     43 ****       -33.4149  11.6374   8.5805 LP             1 <1>                0.0000
     44 ****       -34.1071  10.1618   8.4802 LP             1 <1>                0.0000
     45 ****       -30.1163   9.7559   6.6430 LP             1 <1>                0.0000
     46 ****       -29.6717  10.5437   8.0025 LP             1 <1>                0.0000
@<TRIPOS>BOND
    1    1    4 1     
    2    1   19 1     
    3    1   20 1     
    4    1   21 1     
    5    2    4 1     
    6    2    7 1     
    7    2   22 1     
    8    3    8 1     
    9    3   23 1     
   10    4    6 1     
   11    4   24 1     
   12    5    9 1     
   13    5   10 1     
   14    6   25 1     
   15    6   26 1     
   16    6   27 1     
   17    7    8 1     
   18    7   28 1     
   19    7   29 1     
   20    8    9 1     
   21    8   30 1     
   22    9   31 1     
   23    9   32 1     
   24   10   11 ar    
   25   10   15 ar    
   26   11   12 ar    
   27   11   33 1     
   28   12   13 ar    
   29   12   34 1     
   30   13   14 ar    
   31   13   35 1     
   32   14   15 ar    
   33   14   36 1     
   34   15   16 1     
   35   16   17 1     
   36   16   37 1     
   37   16   38 1     
   38   17   18 2     
   39   17   39 1     
   40   18   40 1     
   41   18   41 1     
   42    2   42 1     
   43    3   43 1     
   44    3   44 1     
   45    5   45 1     
   46    5   46 1     
@<TRIPOS>SUBSTRUCTURE
      1 ****           1
@<TRIPOS>SET
LONE_PAIRS      STATIC     ATOMS    <user>   **** ""
5 42 43 44 45 46
DONOR_HYDROGENS      STATIC     ATOMS    <user>   **** ""
2 22 23
ATOM$BLUE        STATIC     ATOMS    COLORGROUP SYSTEM
5 42 43 44 45 46
ATOM$RED        STATIC     ATOMS    COLORGROUP SYSTEM
2 22 23
@<TRIPOS>COMMENT
> <Gold.Version>
5.6

> <Gold.Id.Protein>
unknown|dok_beta2|pdb

> <Gold.Protein.RotatedTorsions>
[ 4175 4166 4165 4163 ] final -101.52 input -179.98 | X-H torsion
[ 1294 1290 1288 1285 ] final  -51.66 input -179.99 | X-H torsion
[ 4033 4024 4023 4021 ] final   36.96 input  179.98 | X-H torsion
[ 1412 1408 1406 1403 ] final  -87.15 input -179.99 | X-H torsion
[ 2830 2825 2824 2821 ] final -112.29 input -179.98 | X-H torsion
[ 2723 2714 2713 2711 ] final  -92.16 input -179.98 | X-H torsion
[ 2773 2768 2767 2764 ] final -145.89 input  180.00 | X-H torsion

> <Gold.Protein.ActiveResidues>
 TRP109  THR110  ASP113  VAL114  VAL117  THR118  PHE193  TYR199  SER203  SER207 
 PHE208  TRP286  PHE289  PHE290  ASN293  TYR308  ASN312  TYR316 

> <Gold.Protein.RotatedAtoms>
  -34.7796    4.6627    2.5773 H   0  0  0  0  0  0  0  0  0  0  0  0  # atno 1294 bound_to 1290
  -26.6284   15.1215    2.8060 H   0  0  0  0  0  0  0  0  0  0  0  0  # atno 1412 bound_to 1408
  -26.0827    8.3682    2.4880 H   0  0  0  0  0  0  0  0  0  0  0  0  # atno 2723 bound_to 2714
  -24.7321    9.5803    3.4578 H   0  0  0  0  0  0  0  0  0  0  0  0  # atno 2773 bound_to 2768
  -24.9555   13.7459    2.1951 H   0  0  0  0  0  0  0  0  0  0  0  0  # atno 2830 bound_to 2825
  -29.3839    6.2221   10.6779 H   0  0  0  0  0  0  0  0  0  0  0  0  # atno 4033 bound_to 4024
  -36.2201    8.6974    8.3755 H   0  0  0  0  0  0  0  0  0  0  0  0  # atno 4175 bound_to 4166
  -36.8230    9.3313    7.0355 LP  0  0  0  0  0  0  0  0  0  0  0  0  # atno 4597 bound_to 4166
  -37.7376    8.3697    7.9873 LP  0  0  0  0  0  0  0  0  0  0  0  0  # atno 4598 bound_to 4166
  -33.9055    3.5961    1.7652 LP  0  0  0  0  0  0  0  0  0  0  0  0  # atno 4603 bound_to 1290
  -35.2891    4.1919    1.1350 LP  0  0  0  0  0  0  0  0  0  0  0  0  # atno 4604 bound_to 1290
  -28.0484    5.4218   11.0497 LP  0  0  0  0  0  0  0  0  0  0  0  0  # atno 4607 bound_to 4024
  -28.2529    6.9694   11.5292 LP  0  0  0  0  0  0  0  0  0  0  0  0  # atno 4608 bound_to 4024
  -27.5844   14.5096    1.6777 LP  0  0  0  0  0  0  0  0  0  0  0  0  # atno 4611 bound_to 1408
  -28.1820   14.9294    3.1383 LP  0  0  0  0  0  0  0  0  0  0  0  0  # atno 4612 bound_to 1408
  -24.2046   12.6835    3.1265 LP  0  0  0  0  0  0  0  0  0  0  0  0  # atno 4613 bound_to 2825
  -23.3682   13.8592    2.3619 LP  0  0  0  0  0  0  0  0  0  0  0  0  # atno 4614 bound_to 2825

> <Gold.Score>
     Fitness  S(hb_ext) S(vdw_ext)  S(hb_int)    S(int)      intcor
     62.32       7.50      40.72       0.00      -1.17     -10.28

> <Gold.Goldscore.Fitness>
62.3171

> <Gold.Goldscore.Internal.Vdw>
-9.8635

> <Gold.Goldscore.Internal.Torsion>
-1.5871

> <Gold.Goldscore.External.Vdw>
40.7175

> <Gold.Goldscore.Internal.HBond>
0.0000

> <Gold.Goldscore.External.HBond>
7.5026

> <Gold.Goldscore.Internal.Correction>
-10.2785

> <Gold.Goldscore.Hbonds>
donor molecule, donor type, donor heavy atom, donor atom, acceptor molecule, acceptor atom, score
      P1  H  4097  4104       L1     3  0.74
      L1  H     2    22       P1  1335  0.25
      L1  H     3    23       P1  1334  0.75

> <Gold.Goldscore.Internal.Vdw.Weighted>
-9.8635

> <Gold.Goldscore.Internal.Torsion.Weighted>
-1.5871

> <Gold.Goldscore.External.Vdw.Weighted>
55.9866

> <Gold.Goldscore.Internal.HBond.Weighted>
0.0000

> <Gold.Goldscore.External.HBond.Weighted>
7.5026

> <Gold.Goldscore.Internal.Correction.Weighted>
-10.2785

