#       Name:                C:\Users\porto\OneDrive\projekt\beta1\ligandy\2y00 2y00 1
#       Creating user name   student
#       Creation time:       Mon Apr 08 14:36:40 2019


#       File generated by GOLD software.
#

@<TRIPOS>MOLECULE
C:\Users\porto\OneDrive\projekt\beta1\ligandy\2y00 2y00 1|2y00|mol2|1|dock1
    52    53     1
SMALL
GASTEIGER


@<TRIPOS>ATOM
      1 C1         -23.4796   5.7842  16.6420 C.3            1 <1>               -0.0150
      2 N1         -22.9982   7.8442  17.9568 N.3            1 <1>               -0.3132
      3 O1         -24.2903   5.8907  11.7701 O.3            1 <1>               -0.5033
      4 C2         -23.4787   5.1470  15.2647 C.ar           1 <1>               -0.0425
      5 O2         -23.4550   3.3801  11.4822 O.3            1 <1>               -0.5033
      6 C3         -23.0422   3.8185  15.1223 C.ar           1 <1>               -0.0549
      7 O3         -24.3160  12.0495  25.1423 O.3            1 <1>               -0.5068
      8 C4         -22.9911   3.1849  13.8710 C.ar           1 <1>               -0.0163
      9 C5         -23.4250   3.8879  12.7448 C.ar           1 <1>                0.1582
     10 C6         -23.8956   5.2705  12.8973 C.ar           1 <1>                0.1585
     11 C7         -23.9186   5.8746  14.1474 C.ar           1 <1>               -0.0133
     12 C8         -23.1267   7.2752  16.6108 C.3            1 <1>                0.0001
     13 C9         -22.2313   9.0666  18.2173 C.3            1 <1>                0.0051
     14 C10        -20.7300   8.8480  17.9974 C.3            1 <1>               -0.0497
     15 C11        -22.4375   9.5903  19.6324 C.3            1 <1>               -0.0338
     16 C12        -23.8953   9.9415  19.9214 C.3            1 <1>               -0.0263
     17 C13        -24.0136  10.5369  21.3023 C.ar           1 <1>               -0.0471
     18 C14        -24.4128  11.8675  21.4778 C.ar           1 <1>               -0.0551
     19 C15        -24.5198  12.3788  22.7687 C.ar           1 <1>               -0.0199
     20 C16        -24.2142  11.5742  23.8725 C.ar           1 <1>                0.1169
     21 C17        -23.8136  10.2610  23.7032 C.ar           1 <1>               -0.0199
     22 C18        -23.7164   9.7429  22.4104 C.ar           1 <1>               -0.0551
     23 H11        -22.7736   5.2583  17.2846 H              1 <1>                0.0325
     24 H12        -24.4593   5.6532  17.1011 H              1 <1>                0.0325
     25 HN1        -23.9140   8.0741  18.3144 H              1 <1>                0.1222
     26 HO1        -24.5770   6.7826  11.9786 H              1 <1>                0.2923
     27 HO2        -23.7897   4.0455  10.8767 H              1 <1>                0.2923
     28 H3         -22.7336   3.2555  15.9902 H              1 <1>                0.0621
     29 HO3        -24.0673  11.3609  25.7634 H              1 <1>                0.2921
     30 H4         -22.6212   2.1727  13.7927 H              1 <1>                0.0655
     31 H7         -24.2681   6.8897  14.2668 H              1 <1>                0.0658
     32 H81        -23.8945   7.8176  16.0599 H              1 <1>                0.0427
     33 H82        -22.1923   7.4151  16.0671 H              1 <1>                0.0427
     34 H9         -22.5681   9.8336  17.5190 H              1 <1>                0.0458
     35 H101       -20.1935   9.7755  18.1994 H              1 <1>                0.0245
     36 H102       -20.3730   8.0683  18.6704 H              1 <1>                0.0245
     37 H103       -20.5542   8.5450  16.9653 H              1 <1>                0.0245
     38 H111       -21.8147  10.4715  19.7873 H              1 <1>                0.0283
     39 H112       -22.0964   8.8428  20.3485 H              1 <1>                0.0283
     40 H121       -24.5043   9.0397  19.8613 H              1 <1>                0.0314
     41 H122       -24.2486  10.6623  19.1835 H              1 <1>                0.0314
     42 H14        -24.6333  12.4834  20.6185 H              1 <1>                0.0621
     43 H15        -24.8391  13.3987  22.9207 H              1 <1>                0.0654
     44 H17        -23.5813   9.6520  24.5643 H              1 <1>                0.0654
     45 H18        -23.4076   8.7169  22.2728 H              1 <1>                0.0621
     46 ****       -22.4787   7.1027  18.3815 LP             1 <1>                0.0000
     47 ****       -25.0486   5.3844  11.3593 LP             1 <1>                0.0000
     48 ****       -23.5267   5.9282  11.1255 LP             1 <1>                0.0000
     49 ****       -24.0523   2.5784  11.4597 LP             1 <1>                0.0000
     50 ****       -22.5307   3.1148  11.2078 LP             1 <1>                0.0000
     51 ****       -25.2592  12.3316  25.3179 LP             1 <1>                0.0000
     52 ****       -23.7070  12.8348  25.2540 LP             1 <1>                0.0000
@<TRIPOS>BOND
    1    1    4 1     
    2    1   12 1     
    3    1   23 1     
    4    1   24 1     
    5    2   12 1     
    6    2   13 1     
    7    2   25 1     
    8    3   10 1     
    9    3   26 1     
   10    4    6 ar    
   11    4   11 ar    
   12    5    9 1     
   13    5   27 1     
   14    6    8 ar    
   15    6   28 1     
   16    7   20 1     
   17    7   29 1     
   18    8    9 ar    
   19    8   30 1     
   20    9   10 ar    
   21   10   11 ar    
   22   11   31 1     
   23   12   32 1     
   24   12   33 1     
   25   13   14 1     
   26   13   15 1     
   27   13   34 1     
   28   14   35 1     
   29   14   36 1     
   30   14   37 1     
   31   15   16 1     
   32   15   38 1     
   33   15   39 1     
   34   16   17 1     
   35   16   40 1     
   36   16   41 1     
   37   17   18 ar    
   38   17   22 ar    
   39   18   19 ar    
   40   18   42 1     
   41   19   20 ar    
   42   19   43 1     
   43   20   21 ar    
   44   21   22 ar    
   45   21   44 1     
   46   22   45 1     
   47    2   46 1     
   48    3   47 1     
   49    3   48 1     
   50    5   49 1     
   51    5   50 1     
   52    7   51 1     
   53    7   52 1     
@<TRIPOS>SUBSTRUCTURE
      1 ****           1
@<TRIPOS>SET
LONE_PAIRS      STATIC     ATOMS    <user>   **** ""
7 46 47 48 49 50 51 52
DONOR_HYDROGENS      STATIC     ATOMS    <user>   **** ""
4 25 26 27 29
ATOM$BLUE        STATIC     ATOMS    COLORGROUP SYSTEM
7 46 47 48 49 50 51 52
ATOM$RED        STATIC     ATOMS    COLORGROUP SYSTEM
4 25 26 27 29
@<TRIPOS>COMMENT
> <Gold.Version>
5.5

> <Gold.Id.Protein>
unknown|bialko_beta1|pdb

> <Gold.Protein.ActiveResidues>
 ALA86   ASP87   VAL90   VAL94   VAL95   GLY98   ALA99   LEU101  VAL102  CYS114 
 GLU115  TRP117  THR118  SER119  LEU120  ASP121  VAL122  CYS124  VAL125  THR126 
 SER128  SER173  PHE174  ILE177  CYS199  ASP200  PHE201  TYR207  SER215  PHE299 
 TRP303  PHE306  PHE307  ASN310  PHE325  VAL326  ASN329  TRP330  GLY332  TYR333 
 SER336 

> <Gold.Score>
     Score     S(PLP)   S(hbond)     S(cho)   S(metal)  DE(clash)   DE(tors)     intcor
     65.05     -62.90       0.71       0.00       0.00       0.00       0.00       0.00

> <Gold.PLP.Fitness>
65.0473

> <Gold.PLP.PLP>
-62.9023

> <Gold.PLP.part.hbond>
-1.8985

> <Gold.PLP.part.metal>
0.0000

> <Gold.PLP.part.buried>
-3.1877

> <Gold.PLP.part.nonpolar>
-57.5933

> <Gold.PLP.part.repulsive>
0.0000

> <Gold.PLP.ligand.clash>
0.0000

> <Gold.PLP.ligand.torsion>
0.0000

> <Gold.PLP.Chemscore.Hbond>
0.7150

> <Gold.PLP.Chemscore.CHOScore>
0.0000

> <Gold.PLP.Chemscore.Metal>
0.0000

> <Gold.Chemscore.Hbonds>
donor molecule, donor type, donor heavy atom, donor atom, acceptor molecule, acceptor atom, score
      L1  H     2    25       P1  2066  0.71

> <Gold.PLP.Chemscore.Internal.Correction>
0.0000

