#       Name:                C:\Users\porto\OneDrive\projekt\beta1\ligandy\2y00 2y00 1
#       Creating user name   student
#       Creation time:       Mon Apr 01 15:36:01 2019


#       File generated by GOLD software.
#

@<TRIPOS>MOLECULE
C:\Users\porto\OneDrive\projekt\beta1\ligandy\2y00 2y00 1|2y00|mol2|1|dock6
    52    53     1
SMALL
GASTEIGER


@<TRIPOS>ATOM
      1 C1         -23.8519   5.8191  16.7550 C.3            1 <1>               -0.0150
      2 N1         -22.2131   7.6024  17.3370 N.3            1 <1>               -0.3132
      3 O1         -23.2564   6.0866  11.8582 O.3            1 <1>               -0.5033
      4 C2         -23.6370   5.1907  15.3905 C.ar           1 <1>               -0.0425
      5 O2         -23.0314   3.4430  11.6477 O.3            1 <1>               -0.5033
      6 C3         -23.5257   3.7934  15.2871 C.ar           1 <1>               -0.0549
      7 O3         -25.7511  14.4778  21.3170 O.3            1 <1>               -0.5068
      8 C4         -23.2975   3.1566  14.0574 C.ar           1 <1>               -0.0163
      9 C5         -23.2189   3.9375  12.9020 C.ar           1 <1>                0.1582
     10 C6         -23.3510   5.3960  13.0093 C.ar           1 <1>                0.1585
     11 C7         -23.5601   5.9970  14.2436 C.ar           1 <1>               -0.0133
     12 C8         -23.5395   7.3193  16.7779 C.3            1 <1>                0.0001
     13 C9         -21.7063   8.9698  17.4897 C.3            1 <1>                0.0051
     14 C10        -20.2992   8.9850  18.0979 C.3            1 <1>               -0.0497
     15 C11        -22.6135   9.8311  18.3584 C.3            1 <1>               -0.0338
     16 C12        -21.9850  11.1782  18.7077 C.3            1 <1>               -0.0263
     17 C13        -23.0092  12.0628  19.3742 C.ar           1 <1>               -0.0471
     18 C14        -24.1698  12.4535  18.6953 C.ar           1 <1>               -0.0551
     19 C15        -25.0969  13.2627  19.3473 C.ar           1 <1>               -0.0199
     20 C16        -24.8586  13.6916  20.6582 C.ar           1 <1>                0.1169
     21 C17        -23.7103  13.3128  21.3303 C.ar           1 <1>               -0.0199
     22 C18        -22.7848  12.4924  20.6825 C.ar           1 <1>               -0.0551
     23 H11        -23.2304   5.3085  17.4906 H              1 <1>                0.0325
     24 H12        -24.8830   5.6589  17.0693 H              1 <1>                0.0325
     25 HN1        -22.1585   7.2372  18.2767 H              1 <1>                0.1222
     26 HO1        -24.0122   5.8866  11.3015 H              1 <1>                0.2923
     27 HO2        -23.8563   3.4874  11.1588 H              1 <1>                0.2923
     28 H3         -23.6157   3.1778  16.1694 H              1 <1>                0.0621
     29 HO3        -25.6890  14.3122  22.2606 H              1 <1>                0.2921
     30 H4         -23.1863   2.0826  14.0175 H              1 <1>                0.0655
     31 H7         -23.6628   7.0689  14.3285 H              1 <1>                0.0658
     32 H81        -24.2978   7.8382  17.3634 H              1 <1>                0.0427
     33 H82        -23.5985   7.7172  15.7647 H              1 <1>                0.0427
     34 H9         -21.6527   9.4244  16.4999 H              1 <1>                0.0458
     35 H101       -19.9559  10.0153  18.1959 H              1 <1>                0.0245
     36 H102       -20.3223   8.5151  19.0813 H              1 <1>                0.0245
     37 H103       -19.6170   8.4358  17.4492 H              1 <1>                0.0245
     38 H111       -22.8534   9.2940  19.2762 H              1 <1>                0.0283
     39 H112       -23.5594   9.9958  17.8423 H              1 <1>                0.0283
     40 H121       -21.6277  11.6587  17.7971 H              1 <1>                0.0314
     41 H122       -21.1442  11.0225  19.3843 H              1 <1>                0.0314
     42 H14        -24.3373  12.1277  17.6794 H              1 <1>                0.0621
     43 H15        -26.0027  13.5614  18.8417 H              1 <1>                0.0654
     44 H17        -23.5400  13.6512  22.3415 H              1 <1>                0.0654
     45 H18        -21.8883  12.1905  21.2041 H              1 <1>                0.0621
     46 ****       -21.6576   7.1863  16.6170 LP             1 <1>                0.0000
     47 ****       -22.4150   5.8289  11.3832 LP             1 <1>                0.0000
     48 ****       -23.2397   7.0664  12.0579 LP             1 <1>                0.0000
     49 ****       -22.7297   2.4914  11.7063 LP             1 <1>                0.0000
     50 ****       -22.3354   3.9849  11.1766 LP             1 <1>                0.0000
     51 ****       -26.6766  14.2673  21.0020 LP             1 <1>                0.0000
     52 ****       -25.5471  15.4394  21.1334 LP             1 <1>                0.0000
@<TRIPOS>BOND
    1    1    4 1     
    2    1   12 1     
    3    1   23 1     
    4    1   24 1     
    5    2   12 1     
    6    2   13 1     
    7    2   25 1     
    8    3   10 1     
    9    3   26 1     
   10    4    6 ar    
   11    4   11 ar    
   12    5    9 1     
   13    5   27 1     
   14    6    8 ar    
   15    6   28 1     
   16    7   20 1     
   17    7   29 1     
   18    8    9 ar    
   19    8   30 1     
   20    9   10 ar    
   21   10   11 ar    
   22   11   31 1     
   23   12   32 1     
   24   12   33 1     
   25   13   14 1     
   26   13   15 1     
   27   13   34 1     
   28   14   35 1     
   29   14   36 1     
   30   14   37 1     
   31   15   16 1     
   32   15   38 1     
   33   15   39 1     
   34   16   17 1     
   35   16   40 1     
   36   16   41 1     
   37   17   18 ar    
   38   17   22 ar    
   39   18   19 ar    
   40   18   42 1     
   41   19   20 ar    
   42   19   43 1     
   43   20   21 ar    
   44   21   22 ar    
   45   21   44 1     
   46   22   45 1     
   47    2   46 1     
   48    3   47 1     
   49    3   48 1     
   50    5   49 1     
   51    5   50 1     
   52    7   51 1     
   53    7   52 1     
@<TRIPOS>SUBSTRUCTURE
      1 ****           1
@<TRIPOS>SET
LONE_PAIRS      STATIC     ATOMS    <user>   **** ""
7 46 47 48 49 50 51 52
DONOR_HYDROGENS      STATIC     ATOMS    <user>   **** ""
4 25 26 27 29
ATOM$BLUE        STATIC     ATOMS    COLORGROUP SYSTEM
7 46 47 48 49 50 51 52
ATOM$RED        STATIC     ATOMS    COLORGROUP SYSTEM
4 25 26 27 29
@<TRIPOS>COMMENT
> <Gold.Version>
5.5

> <Gold.Id.Protein>
unknown|bialko_beta1|pdb

> <Gold.Protein.ActiveResidues>
 ALA86   ASP87   VAL90   VAL94   VAL95   GLY98   ALA99   LEU101  VAL102  CYS114 
 GLU115  TRP117  THR118  SER119  LEU120  ASP121  VAL122  CYS124  VAL125  THR126 
 SER128  SER173  PHE174  ILE177  CYS199  ASP200  PHE201  TYR207  SER215  PHE299 
 TRP303  PHE306  PHE307  ASN310  PHE325  VAL326  ASN329  TRP330  GLY332  TYR333 
 SER336 

> <Gold.Score>
     Score     S(PLP)   S(hbond)     S(cho)   S(metal)  DE(clash)   DE(tors)     intcor
     72.07     -73.16       0.00       0.00       0.00       0.00       0.61       0.13

> <Gold.PLP.Fitness>
72.0734

> <Gold.PLP.PLP>
-73.1579

> <Gold.PLP.part.hbond>
-2.1840

> <Gold.PLP.part.metal>
0.0000

> <Gold.PLP.part.buried>
-7.8670

> <Gold.PLP.part.nonpolar>
-64.0195

> <Gold.PLP.part.repulsive>
0.0000

> <Gold.PLP.ligand.clash>
0.0000

> <Gold.PLP.ligand.torsion>
0.6061

> <Gold.PLP.Chemscore.Hbond>
0.0000

> <Gold.PLP.Chemscore.CHOScore>
0.0000

> <Gold.PLP.Chemscore.Metal>
0.0000

> <Gold.PLP.Chemscore.Internal.Correction>
0.1277

