#       Name:                C:\Users\porto\OneDrive\projekt\beta2\ligandy\L_6mxt.pdb L_6mxt.pdb 1
#       Creating user name   student
#       Creation time:       Mon Apr 08 15:46:16 2019


#       File generated by GOLD software.
#

@<TRIPOS>MOLECULE
C:\Users\porto\OneDrive\projekt\beta2\ligandy\L_6mxt.pdb L_6mxt.pdb 1|6mxt|mol2|1|dock2
    76    77     1
SMALL
GASTEIGER


@<TRIPOS>ATOM
      1 CAD        -28.0864   0.2107  14.2100 C.ar           1 <1>               -0.0617
      2 CAE        -28.0801   1.5930  14.0619 C.ar           1 <1>               -0.0615
      3 CAF        -28.3421  -0.6002  13.1121 C.ar           1 <1>               -0.0615
      4 CAG        -28.3264   2.1613  12.8150 C.ar           1 <1>               -0.0586
      5 CAH        -28.5895  -0.0330  11.8662 C.ar           1 <1>               -0.0586
      6 CAI        -27.7816  12.3391   5.2211 C.ar           1 <1>               -0.0195
      7 CAJ        -29.0022  11.9784   5.7779 C.ar           1 <1>               -0.0526
      8 CAK        -27.9511  10.0719   6.8214 C.ar           1 <1>               -0.0472
      9 CAL        -34.2196   5.6369   6.7036 C.3            1 <1>               -0.0518
     10 CAM        -33.9104   4.7047   7.8788 C.3            1 <1>               -0.0509
     11 CAN        -33.8792   7.0799   7.0807 C.3            1 <1>               -0.0404
     12 CAO        -34.5996   3.3555   7.6597 C.3            1 <1>               -0.0295
     13 CAP        -31.3162   1.9996  10.8157 C.3            1 <1>               -0.0292
     14 CAQ        -30.1924   1.4223   9.9488 C.3            1 <1>               -0.0470
     15 CAR        -25.5912   9.6700   6.4970 C.3            1 <1>                0.0727
     16 CAS        -32.4348   7.4087   6.6857 C.3            1 <1>               -0.0040
     17 CAT        -34.3311   2.4637   8.8696 C.3            1 <1>                0.0477
     18 CAU        -32.6728   1.5927  10.2426 C.3            1 <1>                0.0477
     19 CAV        -28.8324   1.9095  10.4681 C.3            1 <1>               -0.0276
     20 CAW        -30.7637   9.1634   6.5087 C.3            1 <1>                0.0261
     21 CAZ        -28.5831   1.3493  11.7160 C.ar           1 <1>               -0.0474
     22 NAX        -32.1080   8.8148   6.9896 N.3            1 <1>               -0.3132
     23 OAA        -25.4025   8.7713   5.4017 O.3            1 <1>               -0.3903
     24 OAB        -25.4438  11.8827   4.9433 O.3            1 <1>               -0.5064
     25 OAC        -31.2844  11.4843   6.8260 O.3            1 <1>               -0.3859
     26 OAY        -32.9191   2.3115   9.0338 O.3            1 <1>               -0.3798
     27 CBA        -26.6580  11.5657   5.4679 C.ar           1 <1>                0.1222
     28 CBB        -29.0850  10.8463   6.5792 C.ar           1 <1>               -0.0174
     29 CBC        -26.7296  10.4305   6.2647 C.ar           1 <1>                0.0195
     30 CBD        -30.3073  10.4896   7.1299 C.3            1 <1>                0.0926
     31 HAD        -27.8933  -0.2331  15.1756 H              1 <1>                0.0618
     32 HAE        -27.8839   2.2268  14.9140 H              1 <1>                0.0618
     33 HAF        -28.3492  -1.6739  13.2243 H              1 <1>                0.0618
     34 HAG        -28.3183   3.2349  12.6998 H              1 <1>                0.0620
     35 HAH        -28.7868  -0.6668  11.0140 H              1 <1>                0.0620
     36 HAI        -27.7057  13.2183   4.5979 H              1 <1>                0.0654
     37 HAJ        -29.8810  12.5766   5.5867 H              1 <1>                0.0622
     38 HAK        -28.0239   9.1916   7.4428 H              1 <1>                0.0626
     39 HAL1       -33.6277   5.3383   5.8386 H              1 <1>                0.0266
     40 HAL2       -35.2781   5.5672   6.4533 H              1 <1>                0.0266
     41 HAM1       -34.2750   5.1531   8.8035 H              1 <1>                0.0266
     42 HAM2       -32.8334   4.5551   7.9495 H              1 <1>                0.0266
     43 HAN1       -34.0010   7.2123   8.1556 H              1 <1>                0.0277
     44 HAN2       -34.5599   7.7591   6.5672 H              1 <1>                0.0277
     45 HAO1       -34.1963   2.8834   6.7642 H              1 <1>                0.0287
     46 HAO2       -35.6730   3.5096   7.5531 H              1 <1>                0.0287
     47 HAP1       -31.2226   1.6184  11.8330 H              1 <1>                0.0287
     48 HAP2       -31.2400   3.0870  10.8317 H              1 <1>                0.0287
     49 HAQ1       -30.3253   1.7483   8.9174 H              1 <1>                0.0269
     50 HAQ2       -30.2270   0.3337   9.9879 H              1 <1>                0.0269
     51 HAR1       -24.7258  10.3275   6.5798 H              1 <1>                0.0608
     52 HAR2       -25.7172   9.0994   7.4174 H              1 <1>                0.0608
     53 HAS1       -32.3002   7.2273   5.6190 H              1 <1>                0.0424
     54 HAS2       -31.7522   6.7528   7.2260 H              1 <1>                0.0424
     55 HAT1       -34.7851   1.4864   8.7077 H              1 <1>                0.0560
     56 HAT2       -34.7523   2.9257   9.7624 H              1 <1>                0.0560
     57 HAU1       -33.4552   1.8204  10.9665 H              1 <1>                0.0560
     58 HAU2       -32.6730   0.5230  10.0347 H              1 <1>                0.0560
     59 HAV1       -28.8446   2.9957  10.5540 H              1 <1>                0.0313
     60 HAV2       -28.0492   1.6092   9.7722 H              1 <1>                0.0313
     61 HAW1       -30.0638   8.3742   6.7832 H              1 <1>                0.0453
     62 HAW2       -30.7797   9.2578   5.4225 H              1 <1>                0.0453
     63 HNAX       -32.7786   9.4218   6.5395 H              1 <1>                0.1220
     64 HOAA       -24.6171   8.2405   5.5537 H              1 <1>                0.2098
     65 HOAB       -24.7943  11.2345   5.2237 H              1 <1>                0.2921
     66 HOAC       -31.0167  12.3233   7.2073 H              1 <1>                0.2103
     67 HBD        -30.2109  10.3802   8.2099 H              1 <1>                0.0656
     68 ****       -32.1378   8.9315   7.9823 LP             1 <1>                0.0000
     69 ****       -25.2925   9.2945   4.5566 LP             1 <1>                0.0000
     70 ****       -26.1991   8.1720   5.3214 LP             1 <1>                0.0000
     71 ****       -25.1692  12.7895   5.2633 LP             1 <1>                0.0000
     72 ****       -25.5025  11.8852   3.9451 LP             1 <1>                0.0000
     73 ****       -32.1676  11.2116   7.2077 LP             1 <1>                0.0000
     74 ****       -31.3653  11.5799   5.8338 LP             1 <1>                0.0000
     75 ****       -32.4873   3.2121   9.0841 LP             1 <1>                0.0000
     76 ****       -32.5430   1.8043   8.2584 LP             1 <1>                0.0000
@<TRIPOS>BOND
    1    1    3 ar    
    2    1    2 ar    
    3    1   31 1     
    4    2    4 ar    
    5    2   32 1     
    6    3    5 ar    
    7    3   33 1     
    8    4   21 ar    
    9    4   34 1     
   10    5   21 ar    
   11    5   35 1     
   12    6   27 ar    
   13    6    7 ar    
   14    6   36 1     
   15    7   28 ar    
   16    7   37 1     
   17    8   29 ar    
   18    8   28 ar    
   19    8   38 1     
   20    9   11 1     
   21    9   10 1     
   22    9   39 1     
   23    9   40 1     
   24   10   12 1     
   25   10   41 1     
   26   10   42 1     
   27   11   16 1     
   28   11   43 1     
   29   11   44 1     
   30   12   17 1     
   31   12   45 1     
   32   12   46 1     
   33   13   18 1     
   34   13   14 1     
   35   13   47 1     
   36   13   48 1     
   37   14   19 1     
   38   14   49 1     
   39   14   50 1     
   40   15   23 1     
   41   15   29 1     
   42   15   51 1     
   43   15   52 1     
   44   16   22 1     
   45   16   53 1     
   46   16   54 1     
   47   17   26 1     
   48   17   55 1     
   49   17   56 1     
   50   18   26 1     
   51   18   57 1     
   52   18   58 1     
   53   19   21 1     
   54   19   59 1     
   55   19   60 1     
   56   20   30 1     
   57   20   22 1     
   58   20   61 1     
   59   20   62 1     
   60   22   63 1     
   61   23   64 1     
   62   24   27 1     
   63   24   65 1     
   64   25   30 1     
   65   25   66 1     
   66   27   29 ar    
   67   28   30 1     
   68   30   67 1     
   69   22   68 1     
   70   23   69 1     
   71   23   70 1     
   72   24   71 1     
   73   24   72 1     
   74   25   73 1     
   75   25   74 1     
   76   26   75 1     
   77   26   76 1     
@<TRIPOS>SUBSTRUCTURE
      1 ****           1
@<TRIPOS>SET
LONE_PAIRS      STATIC     ATOMS    <user>   **** ""
9 68 69 70 71 72 73 74 75 76
DONOR_HYDROGENS      STATIC     ATOMS    <user>   **** ""
4 63 64 65 66
ATOM$BLUE        STATIC     ATOMS    COLORGROUP SYSTEM
9 68 69 70 71 72 73 74 75 76
ATOM$RED        STATIC     ATOMS    COLORGROUP SYSTEM
4 63 64 65 66
@<TRIPOS>COMMENT
> <Gold.Version>
5.5

> <Gold.Id.Protein>
unknown|dok_beta2|pdb

> <Gold.Protein.RotatedTorsions>
[ 4175 4166 4165 4163 ] final -127.75 input -179.98 | X-H torsion
[ 1294 1290 1288 1285 ] final   73.83 input -179.99 | X-H torsion
[ 4033 4024 4023 4021 ] final  -52.19 input  179.98 | X-H torsion
[ 1412 1408 1406 1403 ] final   49.82 input -179.99 | X-H torsion
[ 2830 2825 2824 2821 ] final  148.82 input -179.98 | X-H torsion
[ 2723 2714 2713 2711 ] final  -37.56 input -179.98 | X-H torsion
[ 2773 2768 2767 2764 ] final -121.25 input  180.00 | X-H torsion

> <Gold.Protein.ActiveResidues>
 TRP109  THR110  ASP113  VAL114  VAL117  THR118  PHE193  TYR199  SER203  SER207 
 PHE208  TRP286  PHE289  PHE290  ASN293  TYR308  ASN312  TYR316 

> <Gold.Protein.RotatedAtoms>
  -35.2076    4.1426    1.1162 H   0  0  0  0  0  0  0  0  0  0  0  0  # atno 1294 bound_to 1290
  -28.2851   14.8362    2.9003 H   0  0  0  0  0  0  0  0  0  0  0  0  # atno 1412 bound_to 1408
  -25.9565    8.3261    1.6687 H   0  0  0  0  0  0  0  0  0  0  0  0  # atno 2723 bound_to 2714
  -24.6563    9.8358    3.7372 H   0  0  0  0  0  0  0  0  0  0  0  0  # atno 2773 bound_to 2768
  -24.5272   12.7482    3.0380 H   0  0  0  0  0  0  0  0  0  0  0  0  # atno 2830 bound_to 2825
  -28.4753    5.3445   10.8153 H   0  0  0  0  0  0  0  0  0  0  0  0  # atno 4033 bound_to 4024
  -36.0681    8.9438    8.0845 H   0  0  0  0  0  0  0  0  0  0  0  0  # atno 4175 bound_to 4166
  -37.2282    9.1961    7.0114 LP  0  0  0  0  0  0  0  0  0  0  0  0  # atno 4597 bound_to 4166
  -37.4907    8.2481    8.3148 LP  0  0  0  0  0  0  0  0  0  0  0  0  # atno 4598 bound_to 4166
  -34.8671    4.7047    2.5754 LP  0  0  0  0  0  0  0  0  0  0  0  0  # atno 4603 bound_to 1290
  -33.8814    3.6253    1.8475 LP  0  0  0  0  0  0  0  0  0  0  0  0  # atno 4604 bound_to 1290
  -27.8943    6.6230   11.5834 LP  0  0  0  0  0  0  0  0  0  0  0  0  # atno 4607 bound_to 4024
  -29.3533    6.6824   10.8524 LP  0  0  0  0  0  0  0  0  0  0  0  0  # atno 4608 bound_to 4024
  -26.7297   15.1794    3.0556 LP  0  0  0  0  0  0  0  0  0  0  0  0  # atno 4611 bound_to 1408
  -27.3103   14.5568    1.6621 LP  0  0  0  0  0  0  0  0  0  0  0  0  # atno 4612 bound_to 1408
  -23.2606   13.6087    2.5735 LP  0  0  0  0  0  0  0  0  0  0  0  0  # atno 4613 bound_to 2825
  -24.7587   13.9741    2.0361 LP  0  0  0  0  0  0  0  0  0  0  0  0  # atno 4614 bound_to 2825

> <Gold.Score>
     Score     S(PLP)   S(hbond)     S(cho)   S(metal)  DE(clash)   DE(tors)     intcor
     81.19     -77.69       1.17       0.00       0.00       0.00       0.00       0.00

> <Gold.PLP.Fitness>
81.1870

> <Gold.PLP.PLP>
-77.6911

> <Gold.PLP.part.hbond>
-5.1770

> <Gold.PLP.part.metal>
0.0000

> <Gold.PLP.part.buried>
-4.9698

> <Gold.PLP.part.nonpolar>
-67.2424

> <Gold.PLP.part.repulsive>
0.0523

> <Gold.PLP.ligand.clash>
0.0000

> <Gold.PLP.ligand.torsion>
0.0000

> <Gold.PLP.Chemscore.Hbond>
1.1653

> <Gold.PLP.Chemscore.CHOScore>
0.0000

> <Gold.PLP.Chemscore.Metal>
0.0000

> <Gold.Chemscore.Hbonds>
donor molecule, donor type, donor heavy atom, donor atom, acceptor molecule, acceptor atom, score
      P1  H  2825  2830       L1    24  0.34
      P1  H  2768  2773       L1    23  0.82

> <Gold.PLP.Chemscore.Internal.Correction>
0.0000

