#       Name:                C:\Users\porto\OneDrive\projekt\beta2\ligandy\L_4qkx.pdb L_4qkx.pdb 1
#       Creating user name   student
#       Creation time:       Mon Apr 08 16:06:09 2019


#       File generated by GOLD software.
#

@<TRIPOS>MOLECULE
C:\Users\porto\OneDrive\projekt\beta2\ligandy\L_4qkx.pdb L_4qkx.pdb 1|4qkx|mol2|1|dock3
    62    63     1
SMALL
GASTEIGER


@<TRIPOS>ATOM
      1 CAA        -34.4044   3.0335   4.5421 C.3            1 <1>                0.0790
      2 CAF        -27.3896  10.3689   6.1311 C.ar           1 <1>               -0.0162
      3 CAG        -34.0253   7.2519   7.0366 C.ar           1 <1>               -0.0548
      4 CAH        -28.6904  10.4319   6.6148 C.ar           1 <1>               -0.0524
      5 CAI        -34.8438   6.4014   7.7761 C.ar           1 <1>               -0.0160
      6 CAJ        -28.9413  12.6990   5.8206 C.ar           1 <1>               -0.0109
      7 CAK        -33.5311   5.4371   5.5264 C.ar           1 <1>               -0.0131
      8 CAL        -36.9973   5.4348   9.7317 C.3            1 <1>                0.0249
      9 CAM        -31.4301   8.1320   5.9812 C.3            1 <1>               -0.0000
     10 CAN        -35.8111   4.5032   9.4517 C.3            1 <1>                0.0985
     11 CAO        -32.5465   7.5571   5.0967 C.3            1 <1>               -0.0150
     12 CAP        -31.2231  10.2432   7.5330 C.3            1 <1>                0.0261
     13 CAT        -26.8740  11.4846   5.4917 C.ar           1 <1>                0.1582
     14 CAU        -27.6390  12.6358   5.3382 C.ar           1 <1>                0.1586
     15 CAV        -33.3595   6.7636   5.9113 C.ar           1 <1>               -0.0425
     16 CAW        -29.4541  11.5868   6.4736 C.ar           1 <1>               -0.0143
     17 CAX        -34.9974   5.0784   7.3863 C.ar           1 <1>                0.1619
     18 CAY        -34.3487   4.5975   6.2567 C.ar           1 <1>                0.1618
     19 CAZ        -30.7540  11.5928   6.9660 C.3            1 <1>                0.0927
     20 NAQ        -31.6048   9.5562   6.2998 N.3            1 <1>               -0.3129
     21 OAB        -25.6110  11.5062   4.9888 O.3            1 <1>               -0.5033
     22 OAC        -27.0518  13.6837   4.6988 O.3            1 <1>               -0.5033
     23 OAD        -31.7054  12.0638   5.9983 O.3            1 <1>               -0.3859
     24 OAR        -34.5299   3.2862   5.9472 O.3            1 <1>               -0.4914
     25 OAS        -35.7711   4.1830   8.0583 O.3            1 <1>               -0.4875
     26 SAE        -36.7898   6.3517  11.2988 S.3            1 <1>               -0.1749
     27 HAA1       -34.5576   1.9721   4.3481 H              1 <1>                0.0660
     28 HAA2       -35.1518   3.6125   3.9997 H              1 <1>                0.0660
     29 HAA3       -33.4083   3.3231   4.2079 H              1 <1>                0.0660
     30 HAF        -26.8087   9.4668   6.2583 H              1 <1>                0.0655
     31 HAG        -33.9080   8.2828   7.3349 H              1 <1>                0.0621
     32 HAH        -29.1240   9.5757   7.1098 H              1 <1>                0.0622
     33 HAI        -35.3577   6.7716   8.6508 H              1 <1>                0.0655
     34 HAJ        -29.5247  13.5967   5.6824 H              1 <1>                0.0659
     35 HAK        -33.0201   5.0659   4.6506 H              1 <1>                0.0658
     36 HAL1       -37.1054   6.1423   8.9092 H              1 <1>                0.0407
     37 HAL2       -37.9157   4.8495   9.7726 H              1 <1>                0.0407
     38 HAM1       -30.4676   7.9869   5.4893 H              1 <1>                0.0427
     39 HAM2       -31.3708   7.5593   6.9064 H              1 <1>                0.0427
     40 HAN1       -35.9238   3.5878  10.0319 H              1 <1>                0.0705
     41 HAN2       -34.8839   4.9996   9.7368 H              1 <1>                0.0705
     42 HAO1       -32.1064   6.9408   4.3127 H              1 <1>                0.0325
     43 HAO2       -33.1369   8.3732   4.6808 H              1 <1>                0.0325
     44 HAP1       -30.3718   9.7293   7.9784 H              1 <1>                0.0453
     45 HAP2       -32.1128  10.4026   8.1417 H              1 <1>                0.0453
     46 HAZ        -30.7719  12.3021   7.7929 H              1 <1>                0.0656
     47 HNAQ       -32.6010   9.6448   6.1585 H              1 <1>                0.1220
     48 HOAB       -25.1727  12.3169   5.2577 H              1 <1>                0.2923
     49 HOAC       -27.6241  13.9889   3.9910 H              1 <1>                0.2923
     50 HOAD       -32.5134  11.5510   6.0673 H              1 <1>                0.2103
     51 HSAE       -36.5752   7.6435  11.0344 H              1 <1>                0.1017
     52 ****       -30.9155  10.0239   5.7465 LP             1 <1>                0.0000
     53 ****       -25.6491  11.4633   3.9905 LP             1 <1>                0.0000
     54 ****       -25.1003  10.7201   5.3369 LP             1 <1>                0.0000
     55 ****       -26.1753  13.3917   4.3160 LP             1 <1>                0.0000
     56 ****       -26.9000  14.4282   5.3490 LP             1 <1>                0.0000
     57 ****       -31.3240  11.9626   5.0794 LP             1 <1>                0.0000
     58 ****       -31.9069  13.0279   6.1711 LP             1 <1>                0.0000
     59 ****       -33.8446   2.7439   6.4334 LP             1 <1>                0.0000
     60 ****       -35.4445   3.0100   6.2427 LP             1 <1>                0.0000
     61 ****       -36.6997   4.2073   7.6882 LP             1 <1>                0.0000
     62 ****       -35.3897   3.2659   7.9421 LP             1 <1>                0.0000
@<TRIPOS>BOND
    1    1   24 1     
    2    1   27 1     
    3    1   28 1     
    4    1   29 1     
    5    2    4 ar    
    6    2   13 ar    
    7    2   30 1     
    8    3    5 ar    
    9    3   15 ar    
   10    3   31 1     
   11    4   16 ar    
   12    4   32 1     
   13    5   17 ar    
   14    5   33 1     
   15    6   14 ar    
   16    6   16 ar    
   17    6   34 1     
   18    7   18 ar    
   19    7   15 ar    
   20    7   35 1     
   21    8   26 1     
   22    8   10 1     
   23    8   36 1     
   24    8   37 1     
   25    9   11 1     
   26    9   20 1     
   27    9   38 1     
   28    9   39 1     
   29   10   25 1     
   30   10   40 1     
   31   10   41 1     
   32   11   15 1     
   33   11   42 1     
   34   11   43 1     
   35   12   20 1     
   36   12   19 1     
   37   12   44 1     
   38   12   45 1     
   39   13   21 1     
   40   13   14 ar    
   41   14   22 1     
   42   16   19 1     
   43   17   25 1     
   44   17   18 ar    
   45   18   24 1     
   46   19   23 1     
   47   19   46 1     
   48   20   47 1     
   49   21   48 1     
   50   22   49 1     
   51   23   50 1     
   52   26   51 1     
   53   20   52 1     
   54   21   53 1     
   55   21   54 1     
   56   22   55 1     
   57   22   56 1     
   58   23   57 1     
   59   23   58 1     
   60   24   59 1     
   61   24   60 1     
   62   25   61 1     
   63   25   62 1     
@<TRIPOS>SUBSTRUCTURE
      1 ****           1
@<TRIPOS>SET
LONE_PAIRS      STATIC     ATOMS    <user>   **** ""
11 52 53 54 55 56 57 58 59 60 61 62
DONOR_HYDROGENS      STATIC     ATOMS    <user>   **** ""
4 47 48 49 50
ATOM$BLUE        STATIC     ATOMS    COLORGROUP SYSTEM
11 52 53 54 55 56 57 58 59 60 61 62
ATOM$RED        STATIC     ATOMS    COLORGROUP SYSTEM
4 47 48 49 50
@<TRIPOS>COMMENT
> <Gold.Version>
5.5

> <Gold.Id.Protein>
unknown|dok_beta2|pdb

> <Gold.Protein.RotatedTorsions>
[ 4175 4166 4165 4163 ] final  -28.79 input -179.98 | X-H torsion
[ 1294 1290 1288 1285 ] final  -69.37 input -179.99 | X-H torsion
[ 4033 4024 4023 4021 ] final  174.08 input  179.98 | X-H torsion
[ 1412 1408 1406 1403 ] final -161.52 input -179.99 | X-H torsion
[ 2830 2825 2824 2821 ] final  161.78 input -179.98 | X-H torsion
[ 2723 2714 2713 2711 ] final   80.54 input -179.98 | X-H torsion
[ 2773 2768 2767 2764 ] final  -62.76 input  180.00 | X-H torsion

> <Gold.Protein.ActiveResidues>
 TRP109  THR110  ASP113  VAL114  VAL117  THR118  PHE193  TYR199  SER203  SER207 
 PHE208  TRP286  PHE289  PHE290  ASN293  TYR308  ASN312  TYR316 

> <Gold.Protein.RotatedAtoms>
  -34.5405    4.5386    2.6482 H   0  0  0  0  0  0  0  0  0  0  0  0  # atno 1294 bound_to 1290
  -26.9132   14.7101    1.8334 H   0  0  0  0  0  0  0  0  0  0  0  0  # atno 1412 bound_to 1408
  -26.8499    7.0689    1.4955 H   0  0  0  0  0  0  0  0  0  0  0  0  # atno 2723 bound_to 2714
  -24.2002   10.5859    3.8418 H   0  0  0  0  0  0  0  0  0  0  0  0  # atno 2773 bound_to 2768
  -24.7047   12.8113    2.9591 H   0  0  0  0  0  0  0  0  0  0  0  0  # atno 2830 bound_to 2825
  -28.0623    6.7711   11.5679 H   0  0  0  0  0  0  0  0  0  0  0  0  # atno 4033 bound_to 4024
  -37.1957    8.2640    8.4826 H   0  0  0  0  0  0  0  0  0  0  0  0  # atno 4175 bound_to 4166
  -36.0333    9.1267    7.8002 LP  0  0  0  0  0  0  0  0  0  0  0  0  # atno 4597 bound_to 4166
  -37.5103    9.0260    7.1110 LP  0  0  0  0  0  0  0  0  0  0  0  0  # atno 4598 bound_to 4166
  -34.0288    3.5378    1.5090 LP  0  0  0  0  0  0  0  0  0  0  0  0  # atno 4603 bound_to 1290
  -35.4150    4.3795    1.3173 LP  0  0  0  0  0  0  0  0  0  0  0  0  # atno 4604 bound_to 1290
  -29.4093    6.4891   10.7504 LP  0  0  0  0  0  0  0  0  0  0  0  0  # atno 4607 bound_to 4024
  -28.2686    5.3304   10.9015 LP  0  0  0  0  0  0  0  0  0  0  0  0  # atno 4608 bound_to 4024
  -28.3724   14.6544    2.4881 LP  0  0  0  0  0  0  0  0  0  0  0  0  # atno 4611 bound_to 1408
  -27.0972   15.2132    3.3414 LP  0  0  0  0  0  0  0  0  0  0  0  0  # atno 4612 bound_to 1408
  -23.2559   13.4405    2.7041 LP  0  0  0  0  0  0  0  0  0  0  0  0  # atno 4613 bound_to 2825
  -24.5784   14.0765    1.9878 LP  0  0  0  0  0  0  0  0  0  0  0  0  # atno 4614 bound_to 2825

> <Gold.Score>
     Score     S(PLP)   S(hbond)     S(cho)   S(metal)  DE(clash)   DE(tors)     intcor
     81.43     -79.38       2.78       0.00       0.00       3.56       4.49       6.27

> <Gold.PLP.Fitness>
81.4311

> <Gold.PLP.PLP>
-79.3779

> <Gold.PLP.part.hbond>
-4.7996

> <Gold.PLP.part.metal>
0.0000

> <Gold.PLP.part.buried>
-1.4694

> <Gold.PLP.part.nonpolar>
-73.4614

> <Gold.PLP.part.repulsive>
0.1379

> <Gold.PLP.ligand.clash>
3.5576

> <Gold.PLP.ligand.torsion>
4.4905

> <Gold.PLP.Chemscore.Hbond>
2.7752

> <Gold.PLP.Chemscore.CHOScore>
0.0000

> <Gold.PLP.Chemscore.Metal>
0.0000

> <Gold.Chemscore.Hbonds>
donor molecule, donor type, donor heavy atom, donor atom, acceptor molecule, acceptor atom, score
      L1  H    20    47       P1  1334  0.01
      L1  H    22    49       P1  1408  0.77
      L1  H    23    50       P1  1334  1.00
      P1  H  2768  2773       L1    21  1.00

> <Gold.PLP.Chemscore.Internal.Correction>
6.2663

