#       Name:                C:\Users\porto\OneDrive\projekt\beta1\ligandy\2y00 2y00 1
#       Creating user name   student
#       Creation time:       Mon Apr 08 15:08:30 2019


#       File generated by GOLD software.
#

@<TRIPOS>MOLECULE
C:\Users\porto\OneDrive\projekt\beta1\ligandy\2y00 2y00 1|2y00|mol2|1|dock10
    52    53     1
SMALL
GASTEIGER


@<TRIPOS>ATOM
      1 C1         -23.6068   5.7304  16.7195 C.3            1 <1>               -0.0150
      2 N1         -23.3437   7.9023  17.9104 N.3            1 <1>               -0.3132
      3 O1         -23.4477   5.7249  11.7820 O.3            1 <1>               -0.5033
      4 C2         -23.6257   5.0277  15.3746 C.ar           1 <1>               -0.0425
      5 O2         -23.6652   3.0740  11.6853 O.3            1 <1>               -0.5033
      6 C3         -23.7474   3.6281  15.3320 C.ar           1 <1>               -0.0549
      7 O3         -25.0655  11.9518  25.0755 O.3            1 <1>               -0.5068
      8 C4         -23.7416   2.9198  14.1205 C.ar           1 <1>               -0.0163
      9 C5         -23.6512   3.6363  12.9249 C.ar           1 <1>                0.1582
     10 C6         -23.5398   5.0998  12.9702 C.ar           1 <1>                0.1585
     11 C7         -23.5322   5.7699  14.1864 C.ar           1 <1>               -0.0133
     12 C8         -23.3772   7.2410  16.6014 C.3            1 <1>                0.0001
     13 C9         -22.8736   9.2812  18.0764 C.3            1 <1>                0.0051
     14 C10        -21.3428   9.3543  18.1144 C.3            1 <1>               -0.0497
     15 C11        -23.4163   9.9308  19.3423 C.3            1 <1>               -0.0338
     16 C12        -23.0300   9.1658  20.6062 C.3            1 <1>               -0.0263
     17 C13        -23.5637   9.8831  21.8212 C.ar           1 <1>               -0.0471
     18 C14        -23.3393   9.3787  23.1080 C.ar           1 <1>               -0.0551
     19 C15        -23.8396  10.0744  24.2058 C.ar           1 <1>               -0.0199
     20 C16        -24.5715  11.2527  24.0191 C.ar           1 <1>                0.1169
     21 C17        -24.8005  11.7512  22.7491 C.ar           1 <1>               -0.0199
     22 C18        -24.2905  11.0614  21.6477 C.ar           1 <1>               -0.0551
     23 H11        -22.8285   5.2936  17.3453 H              1 <1>                0.0325
     24 H12        -24.5478   5.5463  17.2377 H              1 <1>                0.0325
     25 HN1        -24.2767   7.9361  18.2949 H              1 <1>                0.1222
     26 HO1        -22.8877   5.2135  11.1935 H              1 <1>                0.2923
     27 HO2        -24.5639   2.8271  11.4552 H              1 <1>                0.2923
     28 H3         -23.8489   3.0668  16.2486 H              1 <1>                0.0621
     29 HO3        -24.4479  12.6458  25.3177 H              1 <1>                0.2921
     30 H4         -23.8061   1.8412  14.1248 H              1 <1>                0.0655
     31 H7         -23.4553   6.8466  14.2262 H              1 <1>                0.0658
     32 H81        -24.1671   7.6809  15.9934 H              1 <1>                0.0427
     33 H82        -22.4389   7.4250  16.0779 H              1 <1>                0.0427
     34 H9         -23.2196   9.8628  17.2212 H              1 <1>                0.0458
     35 H101       -21.0307  10.3918  18.2380 H              1 <1>                0.0245
     36 H102       -20.9704   8.7613  18.9499 H              1 <1>                0.0245
     37 H103       -20.9370   8.9624  17.1819 H              1 <1>                0.0245
     38 H111       -24.5025   9.9994  19.2777 H              1 <1>                0.0283
     39 H112       -23.0472  10.9540  19.4114 H              1 <1>                0.0283
     40 H121       -21.9442   9.0987  20.6718 H              1 <1>                0.0314
     41 H122       -23.4494   8.1601  20.5649 H              1 <1>                0.0314
     42 H14        -22.7847   8.4615  23.2398 H              1 <1>                0.0621
     43 H15        -23.6635   9.7051  25.2048 H              1 <1>                0.0654
     44 H17        -25.3668  12.6617  22.6204 H              1 <1>                0.0654
     45 H18        -24.4632  11.4484  20.6540 H              1 <1>                0.0621
     46 ****       -22.6541   7.3261  18.3491 LP             1 <1>                0.0000
     47 ****       -23.0511   6.6334  11.9134 LP             1 <1>                0.0000
     48 ****       -24.3593   5.8139  11.3808 LP             1 <1>                0.0000
     49 ****       -23.0849   2.2597  11.6823 LP             1 <1>                0.0000
     50 ****       -23.3191   3.7324  11.0169 LP             1 <1>                0.0000
     51 ****       -25.1949  11.3351  25.8519 LP             1 <1>                0.0000
     52 ****       -25.9431  12.3598  24.8239 LP             1 <1>                0.0000
@<TRIPOS>BOND
    1    1    4 1     
    2    1   12 1     
    3    1   23 1     
    4    1   24 1     
    5    2   12 1     
    6    2   13 1     
    7    2   25 1     
    8    3   10 1     
    9    3   26 1     
   10    4    6 ar    
   11    4   11 ar    
   12    5    9 1     
   13    5   27 1     
   14    6    8 ar    
   15    6   28 1     
   16    7   20 1     
   17    7   29 1     
   18    8    9 ar    
   19    8   30 1     
   20    9   10 ar    
   21   10   11 ar    
   22   11   31 1     
   23   12   32 1     
   24   12   33 1     
   25   13   14 1     
   26   13   15 1     
   27   13   34 1     
   28   14   35 1     
   29   14   36 1     
   30   14   37 1     
   31   15   16 1     
   32   15   38 1     
   33   15   39 1     
   34   16   17 1     
   35   16   40 1     
   36   16   41 1     
   37   17   18 ar    
   38   17   22 ar    
   39   18   19 ar    
   40   18   42 1     
   41   19   20 ar    
   42   19   43 1     
   43   20   21 ar    
   44   21   22 ar    
   45   21   44 1     
   46   22   45 1     
   47    2   46 1     
   48    3   47 1     
   49    3   48 1     
   50    5   49 1     
   51    5   50 1     
   52    7   51 1     
   53    7   52 1     
@<TRIPOS>SUBSTRUCTURE
      1 ****           1
@<TRIPOS>SET
LONE_PAIRS      STATIC     ATOMS    <user>   **** ""
7 46 47 48 49 50 51 52
DONOR_HYDROGENS      STATIC     ATOMS    <user>   **** ""
4 25 26 27 29
ATOM$BLUE        STATIC     ATOMS    COLORGROUP SYSTEM
7 46 47 48 49 50 51 52
ATOM$RED        STATIC     ATOMS    COLORGROUP SYSTEM
4 25 26 27 29
@<TRIPOS>COMMENT
> <Gold.Version>
5.5

> <Gold.Id.Protein>
unknown|bialko_beta1|pdb

> <Gold.Protein.ActiveResidues>
 ALA86   ASP87   VAL90   VAL94   VAL95   GLY98   ALA99   LEU101  VAL102  CYS114 
 GLU115  TRP117  THR118  SER119  LEU120  ASP121  VAL122  CYS124  VAL125  THR126 
 SER128  SER173  PHE174  ILE177  CYS199  ASP200  PHE201  TYR207  SER215  PHE299 
 TRP303  PHE306  PHE307  ASN310  PHE325  VAL326  ASN329  TRP330  GLY332  TYR333 
 SER336 

> <Gold.Score>
     Score         DG    S(hbond)    S(metal)    S(lipo)     H(rot)  DE(clash)    DE(int)     intcor
     29.98     -30.24       0.99        0.00     264.17       3.69       0.05       0.21       0.07

> <Gold.Chemscore.Fitness>
29.9818

> <Gold.Chemscore.DG>
-30.2419

> <Gold.Chemscore.ZeroCoef>
-5.4800

> <Gold.Chemscore.Hbond>
0.9915

> <Gold.Chemscore.Metal>
0.0000

> <Gold.Chemscore.Lipo>
264.1739

> <Gold.Chemscore.Internal_Hbond>
0.0000

> <Gold.Chemscore.DEClash>
0.0531

> <Gold.Chemscore.DEInternal>
0.2070

> <Gold.Chemscore.Rot>
3.6945

> <Gold.Chemscore.Internal.Correction>
0.0715

> <Gold.Chemscore.Hbonds>
donor molecule, donor type, donor heavy atom, donor atom, acceptor molecule, acceptor atom, score
      L1  H     2    25       P1  2066  0.99

> <Gold.Chemscore.Hbond.Weighted>
-3.3115

> <Gold.Chemscore.Metal.Weighted>
-0.0000

> <Gold.Chemscore.Lipo.Weighted>
-30.9083

> <Gold.Chemscore.Internal_Hbond.Weighted>
0.0000

> <Gold.Chemscore.DEClash.Weighted>
0.0531

> <Gold.Chemscore.DEInternal.Weighted>
0.2070

> <Gold.Chemscore.Rot.Weighted>
9.4579

> <Gold.Chemscore.Internal.Correction.Weighted>
0.0715

