#       Name:                C:\Users\porto\OneDrive\projekt\beta2\ligandy\L_6mxt.pdb L_6mxt.pdb 1
#       Creating user name   mateusz
#       Creation time:       Wed Apr  3 13:21:37 2019


#       File generated by GOLD software.
#

@<TRIPOS>MOLECULE
C:\Users\porto\OneDrive\projekt\beta2\ligandy\L_6mxt.pdb L_6mxt.pdb 1|6mxt|mol2|1|dock687
    76    77     1
SMALL
GASTEIGER


@<TRIPOS>ATOM
      1 CAD        -39.1966   5.6187  10.0022 C.ar           1 <1>               -0.0617
      2 CAE        -38.7828   4.4106  10.5517 C.ar           1 <1>               -0.0615
      3 CAF        -38.2996   6.6739   9.8997 C.ar           1 <1>               -0.0615
      4 CAG        -37.4716   4.2593  10.9946 C.ar           1 <1>               -0.0586
      5 CAH        -36.9896   6.5237  10.3431 C.ar           1 <1>               -0.0586
      6 CAI        -27.3996  13.1414   5.2207 C.ar           1 <1>               -0.0195
      7 CAJ        -28.7018  13.1407   5.7047 C.ar           1 <1>               -0.0526
      8 CAK        -28.5084  10.7841   6.1922 C.ar           1 <1>               -0.0472
      9 CAL        -32.2856   7.2079   6.3695 C.3            1 <1>               -0.0518
     10 CAM        -33.1392   6.9287   5.1289 C.3            1 <1>               -0.0509
     11 CAN        -31.0366   7.9981   5.9746 C.3            1 <1>               -0.0404
     12 CAO        -34.4097   6.1789   5.5374 C.3            1 <1>               -0.0295
     13 CAP        -34.7343   3.6027   9.4502 C.3            1 <1>               -0.0292
     14 CAQ        -34.3414   4.9161  10.1346 C.3            1 <1>               -0.0470
     15 CAR        -26.4505   9.6176   5.7020 C.3            1 <1>                0.0727
     16 CAS        -30.4764   8.7522   7.1861 C.3            1 <1>               -0.0040
     17 CAT        -34.0179   4.8072   6.0816 C.3            1 <1>                0.0477
     18 CAU        -34.1544   3.5619   8.0373 C.3            1 <1>                0.0477
     19 CAV        -35.2634   5.1732  11.3348 C.3            1 <1>               -0.0276
     20 CAW        -30.6325  11.0663   7.9098 C.3            1 <1>                0.0261
     21 CAZ        -36.5738   5.3160  10.8925 C.ar           1 <1>               -0.0474
     22 NAX        -31.3820   9.8408   7.5995 N.3            1 <1>               -0.3132
     23 OAA        -27.0180   8.7016   4.7629 O.3            1 <1>               -0.3903
     24 OAB        -25.3856  11.9230   4.7624 O.3            1 <1>               -0.5064
     25 OAC        -31.4384  11.4406   5.6807 O.3            1 <1>               -0.3859
     26 OAY        -34.8426   4.4984   7.2080 O.3            1 <1>               -0.3798
     27 CBA        -26.6634  11.9668   5.2261 C.ar           1 <1>                0.1222
     28 CBB        -29.2539  11.9624   6.1918 C.ar           1 <1>               -0.0174
     29 CBC        -27.2060  10.7827   5.7078 C.ar           1 <1>                0.0195
     30 CBD        -30.5559  11.9673   6.6708 C.3            1 <1>                0.0926
     31 HAD        -40.2126   5.7383   9.6556 H              1 <1>                0.0618
     32 HAE        -39.4783   3.5887  10.6351 H              1 <1>                0.0618
     33 HAF        -38.6184   7.6137   9.4748 H              1 <1>                0.0618
     34 HAG        -37.1499   3.3197  11.4184 H              1 <1>                0.0620
     35 HAH        -36.2941   7.3461  10.2606 H              1 <1>                0.0620
     36 HAI        -26.9600  14.0525   4.8412 H              1 <1>                0.0654
     37 HAJ        -29.2801  14.0529   5.7004 H              1 <1>                0.0622
     38 HAK        -28.9453   9.8714   6.5696 H              1 <1>                0.0626
     39 HAL1       -32.8679   7.7842   7.0880 H              1 <1>                0.0266
     40 HAL2       -31.9885   6.2638   6.8260 H              1 <1>                0.0266
     41 HAM1       -32.5691   6.3215   4.4252 H              1 <1>                0.0266
     42 HAM2       -33.4105   7.8720   4.6556 H              1 <1>                0.0266
     43 HAN1       -31.2910   8.7099   5.1894 H              1 <1>                0.0277
     44 HAN2       -30.2802   7.3130   5.5912 H              1 <1>                0.0277
     45 HAO1       -35.0529   6.0538   4.6667 H              1 <1>                0.0287
     46 HAO2       -34.9299   6.7419   6.3118 H              1 <1>                0.0287
     47 HAP1       -34.3460   2.7624  10.0265 H              1 <1>                0.0287
     48 HAP2       -35.8208   3.5311   9.3990 H              1 <1>                0.0287
     49 HAQ1       -34.4326   5.7374   9.4241 H              1 <1>                0.0269
     50 HAQ2       -33.3088   4.8517  10.4773 H              1 <1>                0.0269
     51 HAR1       -25.4268   9.8501   5.4086 H              1 <1>                0.0608
     52 HAR2       -26.4626   9.1719   6.6969 H              1 <1>                0.0608
     53 HAS1       -29.5003   9.1682   6.9347 H              1 <1>                0.0424
     54 HAS2       -30.3415   8.0580   8.0154 H              1 <1>                0.0424
     55 HAT1       -32.9731   4.8246   6.3907 H              1 <1>                0.0560
     56 HAT2       -34.1641   4.0537   5.3078 H              1 <1>                0.0560
     57 HAU1       -34.2705   2.5590   7.6265 H              1 <1>                0.0560
     58 HAU2       -33.0957   3.8179   8.0718 H              1 <1>                0.0560
     59 HAV1       -34.9511   6.0846  11.8438 H              1 <1>                0.0313
     60 HAV2       -35.2029   4.3325  12.0259 H              1 <1>                0.0313
     61 HAW1       -31.1307  11.6019   8.7179 H              1 <1>                0.0453
     62 HAW2       -29.6240  10.8037   8.2307 H              1 <1>                0.0453
     63 HNAX       -32.0318  10.0412   6.8522 H              1 <1>                0.1220
     64 HOAA       -27.9612   8.8634   4.6866 H              1 <1>                0.2098
     65 HOAB       -24.7858  12.2277   5.4465 H              1 <1>                0.2921
     66 HOAC       -32.3474  11.5883   5.9507 H              1 <1>                0.2103
     67 HBD        -30.8525  12.9831   6.9313 H              1 <1>                0.0656
     68 ****       -31.8698   9.5424   8.4199 LP             1 <1>                0.0000
     69 ****       -26.8651   7.7647   5.0774 LP             1 <1>                0.0000
     70 ****       -26.5850   8.8285   3.8705 LP             1 <1>                0.0000
     71 ****       -25.3022  12.5130   3.9593 LP             1 <1>                0.0000
     72 ****       -25.1544  10.9831   4.5111 LP             1 <1>                0.0000
     73 ****       -31.2765  10.4591   5.5782 LP             1 <1>                0.0000
     74 ****       -31.2714  11.8989   4.8077 LP             1 <1>                0.0000
     75 ****       -35.7046   4.1001   6.8946 LP             1 <1>                0.0000
     76 ****       -35.0300   5.3327   7.7265 LP             1 <1>                0.0000
@<TRIPOS>BOND
    1    1    3 ar    
    2    1    2 ar    
    3    1   31 1     
    4    2    4 ar    
    5    2   32 1     
    6    3    5 ar    
    7    3   33 1     
    8    4   21 ar    
    9    4   34 1     
   10    5   21 ar    
   11    5   35 1     
   12    6   27 ar    
   13    6    7 ar    
   14    6   36 1     
   15    7   28 ar    
   16    7   37 1     
   17    8   29 ar    
   18    8   28 ar    
   19    8   38 1     
   20    9   11 1     
   21    9   10 1     
   22    9   39 1     
   23    9   40 1     
   24   10   12 1     
   25   10   41 1     
   26   10   42 1     
   27   11   16 1     
   28   11   43 1     
   29   11   44 1     
   30   12   17 1     
   31   12   45 1     
   32   12   46 1     
   33   13   18 1     
   34   13   14 1     
   35   13   47 1     
   36   13   48 1     
   37   14   19 1     
   38   14   49 1     
   39   14   50 1     
   40   15   23 1     
   41   15   29 1     
   42   15   51 1     
   43   15   52 1     
   44   16   22 1     
   45   16   53 1     
   46   16   54 1     
   47   17   26 1     
   48   17   55 1     
   49   17   56 1     
   50   18   26 1     
   51   18   57 1     
   52   18   58 1     
   53   19   21 1     
   54   19   59 1     
   55   19   60 1     
   56   20   30 1     
   57   20   22 1     
   58   20   61 1     
   59   20   62 1     
   60   22   63 1     
   61   23   64 1     
   62   24   27 1     
   63   24   65 1     
   64   25   30 1     
   65   25   66 1     
   66   27   29 ar    
   67   28   30 1     
   68   30   67 1     
   69   22   68 1     
   70   23   69 1     
   71   23   70 1     
   72   24   71 1     
   73   24   72 1     
   74   25   73 1     
   75   25   74 1     
   76   26   75 1     
   77   26   76 1     
@<TRIPOS>SUBSTRUCTURE
      1 ****           1
@<TRIPOS>SET
LONE_PAIRS      STATIC     ATOMS    <user>   **** ""
9 68 69 70 71 72 73 74 75 76
DONOR_HYDROGENS      STATIC     ATOMS    <user>   **** ""
4 63 64 65 66
ATOM$BLUE        STATIC     ATOMS    COLORGROUP SYSTEM
9 68 69 70 71 72 73 74 75 76
ATOM$RED        STATIC     ATOMS    COLORGROUP SYSTEM
4 63 64 65 66
@<TRIPOS>COMMENT
> <Gold.Version>
5.5

> <Gold.Id.Protein>
unknown|dok_beta2|pdb

> <Gold.Protein.RotatedTorsions>
[ 4175 4166 4165 4163 ] final   76.78 input -179.98 | X-H torsion
[ 1294 1290 1288 1285 ] final -169.04 input -179.99 | X-H torsion
[ 4033 4024 4023 4021 ] final -112.98 input  179.98 | X-H torsion
[ 1412 1408 1406 1403 ] final  131.31 input -179.99 | X-H torsion
[ 2830 2825 2824 2821 ] final  144.63 input -179.98 | X-H torsion
[ 2723 2714 2713 2711 ] final -138.34 input -179.98 | X-H torsion
[ 2773 2768 2767 2764 ] final  -74.23 input  180.00 | X-H torsion

> <Gold.Protein.ActiveResidues>
 TRP109  THR110  ASP113  VAL114  VAL117  THR118  PHE193  TYR199  SER203  SER207 
 PHE208  TRP286  PHE289  PHE290  ASN293  TYR308  ASN312  TYR316 

> <Gold.Protein.RotatedAtoms>
  -33.9175    3.6408    1.8005 H   0  0  0  0  0  0  0  0  0  0  0  0  # atno 1294 bound_to 1290
  -27.8960   14.5195    1.8309 H   0  0  0  0  0  0  0  0  0  0  0  0  # atno 1412 bound_to 1408
  -26.4722    7.9490    2.9079 H   0  0  0  0  0  0  0  0  0  0  0  0  # atno 2723 bound_to 2714
  -24.3064   10.4481    3.8912 H   0  0  0  0  0  0  0  0  0  0  0  0  # atno 2773 bound_to 2768
  -24.4657   12.7353    3.0585 H   0  0  0  0  0  0  0  0  0  0  0  0  # atno 2830 bound_to 2825
  -27.8212    5.7549   11.3083 H   0  0  0  0  0  0  0  0  0  0  0  0  # atno 4033 bound_to 4024
  -37.6335    8.8959    7.2638 H   0  0  0  0  0  0  0  0  0  0  0  0  # atno 4175 bound_to 4166
  -36.9820    8.2636    8.5816 LP  0  0  0  0  0  0  0  0  0  0  0  0  # atno 4597 bound_to 4166
  -36.1052    9.2304    7.6002 LP  0  0  0  0  0  0  0  0  0  0  0  0  # atno 4598 bound_to 4166
  -35.2651    4.1635    1.1134 LP  0  0  0  0  0  0  0  0  0  0  0  0  # atno 4603 bound_to 1290
  -34.8278    4.6894    2.5963 LP  0  0  0  0  0  0  0  0  0  0  0  0  # atno 4604 bound_to 1290
  -28.6883    7.0996   11.3535 LP  0  0  0  0  0  0  0  0  0  0  0  0  # atno 4607 bound_to 4024
  -29.2406    5.7783   10.5688 LP  0  0  0  0  0  0  0  0  0  0  0  0  # atno 4608 bound_to 4024
  -27.9206   15.0535    3.3394 LP  0  0  0  0  0  0  0  0  0  0  0  0  # atno 4611 bound_to 1408
  -26.5249   15.0127    2.4927 LP  0  0  0  0  0  0  0  0  0  0  0  0  # atno 4612 bound_to 1408
  -23.2723   13.6615    2.5308 LP  0  0  0  0  0  0  0  0  0  0  0  0  # atno 4613 bound_to 2825
  -24.8111   13.9348    2.0574 LP  0  0  0  0  0  0  0  0  0  0  0  0  # atno 4614 bound_to 2825

> <Gold.Score>
     Score     S(PLP)   S(hbond)     S(cho)   S(metal)  DE(clash)   DE(tors)     intcor
    104.63     -99.29       3.57       0.00       0.00       0.24       2.88       0.65

> <Gold.PLP.Fitness>
104.6288

> <Gold.PLP.PLP>
-99.2873

> <Gold.PLP.part.hbond>
-5.7653

> <Gold.PLP.part.metal>
0.0000

> <Gold.PLP.part.buried>
-5.7607

> <Gold.PLP.part.nonpolar>
-90.5315

> <Gold.PLP.part.repulsive>
0.0280

> <Gold.PLP.ligand.clash>
0.2447

> <Gold.PLP.ligand.torsion>
2.8828

> <Gold.PLP.Chemscore.Hbond>
3.5660

> <Gold.PLP.Chemscore.CHOScore>
0.0000

> <Gold.PLP.Chemscore.Metal>
0.0000

> <Gold.Chemscore.Hbonds>
donor molecule, donor type, donor heavy atom, donor atom, acceptor molecule, acceptor atom, score
      L1  H    25    66       P1  1334  0.91
      P1  H  2825  2830       L1    24  0.66
      P1  H  2714  2723       L1    23  1.00
      P1  H  2768  2773       L1    24  1.00

> <Gold.PLP.Chemscore.Internal.Correction>
0.6537

