#       Name:                C:\Users\porto\OneDrive\projekt\beta1\ligandy\L_6h7j.pdb L_6h7j.pdb 1
#       Creating user name   student
#       Creation time:       Mon Apr 01 15:38:05 2019


#       File generated by GOLD software.
#

@<TRIPOS>MOLECULE
C:\Users\porto\OneDrive\projekt\beta1\ligandy\L_6h7j.pdb L_6h7j.pdb 1|6h7j|mol2|1|dock3
    39    39     1
SMALL
GASTEIGER


@<TRIPOS>ATOM
      1 CAE        -23.4704   6.7563  16.5063 C.3            1 <1>                0.0927
      2 CAF        -22.1924   7.6041  16.5138 C.3            1 <1>                0.0263
      3 CAG        -21.0761   9.5015  17.6102 C.3            1 <1>                0.0021
      4 CAH        -23.4125   5.7250  15.3713 C.ar           1 <1>               -0.0143
      5 CAI        -21.3634  10.7875  18.3985 C.3            1 <1>               -0.0499
      6 CAJ        -20.0067   8.6568  18.3233 C.3            1 <1>               -0.0499
      7 CAK        -23.3519   6.1681  14.0485 C.ar           1 <1>               -0.0109
      8 CAL        -23.4260   4.3519  15.6330 C.ar           1 <1>               -0.0524
      9 CAM        -23.2868   5.2567  12.9954 C.ar           1 <1>                0.1586
     10 CAN        -23.3754   3.4359  14.5841 C.ar           1 <1>               -0.0162
     11 CAO        -23.3052   3.8898  13.2691 C.ar           1 <1>                0.1582
     12 NAD        -22.3510   8.7771  17.4027 N.3            1 <1>               -0.3110
     13 OAA        -23.5994   6.1235  17.7758 O.3            1 <1>               -0.3859
     14 OAB        -23.2188   5.6982  11.7096 O.3            1 <1>               -0.5033
     15 OAC        -23.2565   2.9958  12.2577 O.3            1 <1>               -0.5033
     16 HAE        -24.3284   7.4102  16.3474 H              1 <1>                0.0656
     17 HAF1       -21.9756   7.9431  15.5011 H              1 <1>                0.0453
     18 HAF2       -21.3561   6.9968  16.8602 H              1 <1>                0.0453
     19 HAG        -20.6862   9.7848  16.6328 H              1 <1>                0.0455
     20 HAI1       -22.1229  11.3714  17.8783 H              1 <1>                0.0245
     21 HAI2       -21.7231  10.5312  19.3949 H              1 <1>                0.0245
     22 HAI3       -20.4486  11.3740  18.4830 H              1 <1>                0.0245
     23 HAJ1       -19.0980   9.2462  18.4438 H              1 <1>                0.0245
     24 HAJ2       -20.3762   8.3541  19.3029 H              1 <1>                0.0245
     25 HAJ3       -19.7872   7.7702  17.7285 H              1 <1>                0.0245
     26 HAK        -23.3551   7.2258  13.8332 H              1 <1>                0.0659
     27 HAL        -23.4759   3.9963  16.6518 H              1 <1>                0.0622
     28 HAN        -23.3900   2.3759  14.7910 H              1 <1>                0.0655
     29 HNAD       -23.0141   9.4211  16.9952 H              1 <1>                0.1223
     30 HOAA       -24.3311   6.5160  18.2568 H              1 <1>                0.2103
     31 HOAB       -23.1026   4.9497  11.1201 H              1 <1>                0.2923
     32 HOAC       -23.5867   3.4031  11.4538 H              1 <1>                0.2923
     33 ****       -22.6699   8.4351  18.2866 LP             1 <1>                0.0000
     34 ****       -22.7545   6.2459  18.2965 LP             1 <1>                0.0000
     35 ****       -23.7721   5.1472  17.6454 LP             1 <1>                0.0000
     36 ****       -22.4440   6.3227  11.6120 LP             1 <1>                0.0000
     37 ****       -24.0648   6.1777  11.4766 LP             1 <1>                0.0000
     38 ****       -23.8218   2.2032  12.4862 LP             1 <1>                0.0000
     39 ****       -22.3110   2.7018  12.1182 LP             1 <1>                0.0000
@<TRIPOS>BOND
    1    1    4 1     
    2    1   13 1     
    3    1    2 1     
    4    1   16 1     
    5    2   12 1     
    6    2   17 1     
    7    2   18 1     
    8    3    6 1     
    9    3   12 1     
   10    3    5 1     
   11    3   19 1     
   12    4    7 ar    
   13    4    8 ar    
   14    5   20 1     
   15    5   21 1     
   16    5   22 1     
   17    6   23 1     
   18    6   24 1     
   19    6   25 1     
   20    7    9 ar    
   21    7   26 1     
   22    8   10 ar    
   23    8   27 1     
   24    9   14 1     
   25    9   11 ar    
   26   10   11 ar    
   27   10   28 1     
   28   11   15 1     
   29   12   29 1     
   30   13   30 1     
   31   14   31 1     
   32   15   32 1     
   33   12   33 1     
   34   13   34 1     
   35   13   35 1     
   36   14   36 1     
   37   14   37 1     
   38   15   38 1     
   39   15   39 1     
@<TRIPOS>SUBSTRUCTURE
      1 ****           1
@<TRIPOS>SET
LONE_PAIRS      STATIC     ATOMS    <user>   **** ""
7 33 34 35 36 37 38 39
DONOR_HYDROGENS      STATIC     ATOMS    <user>   **** ""
4 29 30 31 32
ATOM$BLUE        STATIC     ATOMS    COLORGROUP SYSTEM
7 33 34 35 36 37 38 39
ATOM$RED        STATIC     ATOMS    COLORGROUP SYSTEM
4 29 30 31 32
@<TRIPOS>COMMENT
> <Gold.Version>
5.5

> <Gold.Id.Protein>
unknown|bialko_beta1|pdb

> <Gold.Protein.ActiveResidues>
 ALA86   ASP87   VAL90   VAL94   VAL95   GLY98   ALA99   LEU101  VAL102  CYS114 
 GLU115  TRP117  THR118  SER119  LEU120  ASP121  VAL122  CYS124  VAL125  THR126 
 SER128  SER173  PHE174  ILE177  CYS199  ASP200  PHE201  TYR207  SER215  PHE299 
 TRP303  PHE306  PHE307  ASN310  PHE325  VAL326  ASN329  TRP330  GLY332  TYR333 
 SER336 

> <Gold.Score>
     Score     S(PLP)   S(hbond)     S(cho)   S(metal)  DE(clash)   DE(tors)     intcor
     53.45     -50.65       1.00       0.00       0.00       0.00       0.11       0.02

> <Gold.PLP.Fitness>
53.4483

> <Gold.PLP.PLP>
-50.6549

> <Gold.PLP.part.hbond>
-3.1523

> <Gold.PLP.part.metal>
0.0000

> <Gold.PLP.part.buried>
-4.2913

> <Gold.PLP.part.nonpolar>
-42.5200

> <Gold.PLP.part.repulsive>
0.0000

> <Gold.PLP.ligand.clash>
0.0000

> <Gold.PLP.ligand.torsion>
0.1138

> <Gold.PLP.Chemscore.Hbond>
1.0000

> <Gold.PLP.Chemscore.CHOScore>
0.0000

> <Gold.PLP.Chemscore.Metal>
0.0000

> <Gold.Chemscore.Hbonds>
donor molecule, donor type, donor heavy atom, donor atom, acceptor molecule, acceptor atom, score
      L1  H    13    30       P1  2066  1.00

> <Gold.PLP.Chemscore.Internal.Correction>
0.0211

