#       Name:                C:\Users\porto\OneDrive\projekt\beta1\ligandy\L_3zpq.pdb L_3zpq.pdb 1
#       Creating user name   student
#       Creation time:       Wed Apr 10 10:08:35 2019


#       File generated by GOLD software.
#

@<TRIPOS>MOLECULE
C:\Users\porto\OneDrive\projekt\beta1\ligandy\L_3zpq.pdb L_3zpq.pdb 1|3zpq|mol2|1|dock4
    31    33     1
SMALL
GASTEIGER


@<TRIPOS>ATOM
      1 C1         -22.3477   1.6828  12.9081 C.ar           1 <1>               -0.0580
      2 C2         -22.5354   2.4511  14.0407 C.ar           1 <1>               -0.0400
      3 C3         -23.3197   3.5983  13.9639 C.ar           1 <1>                0.0390
      4 C4         -23.8644   3.9488  12.7906 C.ar           1 <1>                0.0207
      5 C5         -24.6264   4.9889  12.4355 C.ar           1 <1>               -0.0349
      6 C6         -24.9135   4.8817  11.1381 C.ar           1 <1>                0.0028
      7 N7         -24.3296   3.7738  10.6850 N.pl3          1 <1>               -0.3606
      8 C8         -23.6800   3.2015  11.6942 C.ar           1 <1>                0.0482
      9 C9         -22.9433   2.0951  11.7288 C.ar           1 <1>               -0.0377
     10 N10        -23.4556   4.3635  15.0648 N.pl3          1 <1>               -0.3270
     11 C11        -24.6234   4.0699  15.9573 C.3            1 <1>                0.0248
     12 C12        -24.5426   4.5736  17.3745 C.3            1 <1>                0.0117
     13 N13        -23.5411   5.6481  17.5405 N.3            1 <1>               -0.3130
     14 C14        -23.3606   6.3679  16.2779 C.3            1 <1>                0.0117
     15 C15        -22.6056   5.5502  15.3169 C.3            1 <1>                0.0248
     16 H1         -21.7489   0.7857  12.9570 H              1 <1>                0.0619
     17 H2         -22.0758   2.1596  14.9729 H              1 <1>                0.0636
     18 H5         -24.9011   5.7330  13.1692 H              1 <1>                0.0639
     19 H6         -25.5239   5.6306  10.6563 H              1 <1>                0.0807
     20 HN7        -24.4316   3.5096   9.7159 H              1 <1>                0.1653
     21 H9         -22.8121   1.5165  10.8259 H              1 <1>                0.0638
     22 H111       -24.8041   2.9952  15.9685 H              1 <1>                0.0476
     23 H112       -25.5332   4.4495  15.4928 H              1 <1>                0.0476
     24 H121       -24.2987   3.7457  18.0400 H              1 <1>                0.0439
     25 H122       -25.5212   4.9399  17.6851 H              1 <1>                0.0439
     26 HN13       -23.8559   6.2956  18.2491 H              1 <1>                0.1220
     27 H141       -22.8236   7.2982  16.4637 H              1 <1>                0.0439
     28 H142       -24.3361   6.6142  15.8579 H              1 <1>                0.0439
     29 H151       -22.4788   6.1079  14.3894 H              1 <1>                0.0476
     30 H152       -21.6672   5.2334  15.7710 H              1 <1>                0.0476
     31 ****       -22.6703   5.2403  17.8150 LP             1 <1>                0.0000
@<TRIPOS>BOND
    1    1    2 ar    
    2    1    9 ar    
    3    1   16 1     
    4    2    3 ar    
    5    2   17 1     
    6    3    4 ar    
    7    3   10 1     
    8    4    5 ar    
    9    4    8 ar    
   10    5    6 ar    
   11    5   18 1     
   12    6    7 ar    
   13    6   19 1     
   14    7    8 ar    
   15    7   20 1     
   16    8    9 ar    
   17    9   21 1     
   18   10   11 1     
   19   10   15 1     
   20   11   12 1     
   21   11   22 1     
   22   11   23 1     
   23   12   13 1     
   24   12   24 1     
   25   12   25 1     
   26   13   14 1     
   27   13   26 1     
   28   14   15 1     
   29   14   27 1     
   30   14   28 1     
   31   15   29 1     
   32   15   30 1     
   33   13   31 1     
@<TRIPOS>SUBSTRUCTURE
      1 ****           1
@<TRIPOS>SET
LONE_PAIRS      STATIC     ATOMS    <user>   **** ""
1 31
DONOR_HYDROGENS      STATIC     ATOMS    <user>   **** ""
2 20 26
ATOM$BLUE        STATIC     ATOMS    COLORGROUP SYSTEM
1 31
ATOM$RED        STATIC     ATOMS    COLORGROUP SYSTEM
2 20 26
@<TRIPOS>COMMENT
> <Gold.Version>
5.6

> <Gold.Id.Protein>
unknown|bialko_beta1 1|pdb

> <Gold.Protein.ActiveResidues>
 ALA86   ASP87   VAL90   VAL94   VAL95   GLY98   ALA99   LEU101  VAL102  CYS114 
 GLU115  TRP117  THR118  SER119  LEU120  ASP121  VAL122  CYS124  VAL125  THR126 
 SER128  SER173  PHE174  ILE177  CYS199  ASP200  PHE201  TYR207  SER215  PHE299 
 TRP303  PHE306  PHE307  ASN310  PHE325  VAL326  ASN329  TRP330  GLY332  TYR333 
 SER336 

> <Gold.Score>
     Fitness  S(hb_ext) S(vdw_ext)  S(hb_int)    S(int)      intcor
     38.22       0.31      27.61       0.00      -0.07      -3.77

> <Gold.Goldscore.Fitness>
38.2163

> <Gold.Goldscore.Internal.Vdw>
2.5077

> <Gold.Goldscore.Internal.Torsion>
-6.3458

> <Gold.Goldscore.External.Vdw>
27.6143

> <Gold.Goldscore.Internal.HBond>
0.0000

> <Gold.Goldscore.External.HBond>
0.3143

> <Gold.Goldscore.Internal.Correction>
-3.7705

> <Gold.Goldscore.Hbonds>
donor molecule, donor type, donor heavy atom, donor atom, acceptor molecule, acceptor atom, score
      L1  H    13    26       P1  2066  0.16

> <Gold.Goldscore.Internal.Vdw.Weighted>
2.5077

> <Gold.Goldscore.Internal.Torsion.Weighted>
-6.3458

> <Gold.Goldscore.External.Vdw.Weighted>
37.9696

> <Gold.Goldscore.Internal.HBond.Weighted>
0.0000

> <Gold.Goldscore.External.HBond.Weighted>
0.3143

> <Gold.Goldscore.Internal.Correction.Weighted>
-3.7705

