#       Name:                C:\Users\porto\OneDrive\projekt\beta2\ligandy\L_3ny9.pdb L_3ny9.pdb 1
#       Creating user name   student
#       Creation time:       Mon Apr 01 15:20:33 2019


#       File generated by GOLD software.
#

@<TRIPOS>MOLECULE
C:\Users\porto\OneDrive\projekt\beta2\ligandy\L_3ny9.pdb L_3ny9.pdb 1|3ny9|mol2|1|dock1
    58    59     1
SMALL
GASTEIGER


@<TRIPOS>ATOM
      1 C1         -34.3561   3.2584   8.8047 C.2            1 <1>                0.3751
      2 N1         -28.6189  11.1805   6.6773 N.3            1 <1>               -0.3112
      3 O1         -35.2940   2.5771   8.4266 O.2            1 <1>               -0.2415
      4 C2         -34.0945   1.8933  10.9192 C.3            1 <1>                0.0901
      5 O2         -33.7192   3.0025  10.0926 O.3            1 <1>               -0.4593
      6 C3         -33.4713   2.0522  12.2908 C.3            1 <1>               -0.0306
      7 O3         -34.3351   4.5720   6.6881 O.3            1 <1>               -0.4478
      8 C4         -33.8690   4.3655   7.9490 C.ar           1 <1>                0.2156
      9 O4         -31.1482   7.9804   7.5319 O.3            1 <1>               -0.4886
     10 C5         -32.8671   5.4172   8.2426 C.ar           1 <1>                0.0131
     11 O5         -32.1080  10.3937   7.4565 O.3            1 <1>               -0.3872
     12 C6         -32.0225   5.7117   9.4542 C.3            1 <1>               -0.0352
     13 C7         -32.7744   6.2325   7.1027 C.ar           1 <1>                0.0655
     14 C8         -33.6909   5.6444   6.2247 C.ar           1 <1>                0.1398
     15 C9         -33.8973   6.1705   4.9538 C.ar           1 <1>               -0.0185
     16 C10        -33.1744   7.2960   4.5554 C.ar           1 <1>               -0.0548
     17 C11        -32.2592   7.8882   5.4223 C.ar           1 <1>               -0.0191
     18 C12        -32.0473   7.3601   6.6974 C.ar           1 <1>                0.1316
     19 C13        -30.1827   8.9579   7.1242 C.3            1 <1>                0.1166
     20 C14        -30.8974  10.2469   6.7084 C.3            1 <1>                0.1015
     21 C15        -30.0347  11.4822   6.9520 C.3            1 <1>                0.0254
     22 C16        -28.1840  11.7920   5.3951 C.3            1 <1>                0.0021
     23 C17        -28.4021  13.3015   5.4462 C.3            1 <1>               -0.0499
     24 C18        -26.7207  11.4800   5.0962 C.3            1 <1>               -0.0499
     25 HN1        -28.0451  11.5487   7.4229 H              1 <1>                0.1223
     26 H21        -33.7423   0.9669  10.4656 H              1 <1>                0.0695
     27 H22        -35.1799   1.8629  11.0152 H              1 <1>                0.0695
     28 H31        -33.7566   1.2088  12.9200 H              1 <1>                0.0262
     29 H32        -32.3862   2.0838  12.1955 H              1 <1>                0.0262
     30 H33        -33.8222   2.9787  12.7448 H              1 <1>                0.0262
     31 HO5        -32.8506  10.4709   6.8531 H              1 <1>                0.2100
     32 H61        -31.4048   6.5896   9.2626 H              1 <1>                0.0279
     33 H62        -32.6694   5.9034  10.3106 H              1 <1>                0.0279
     34 H63        -31.3817   4.8558   9.6676 H              1 <1>                0.0279
     35 H9         -34.6104   5.7083   4.2874 H              1 <1>                0.0654
     36 H10        -33.3233   7.7130   3.5698 H              1 <1>                0.0620
     37 H11        -31.7073   8.7625   5.1099 H              1 <1>                0.0654
     38 H131       -29.6098   8.5723   6.2813 H              1 <1>                0.0723
     39 H132       -29.5067   9.1685   7.9529 H              1 <1>                0.0723
     40 H14        -31.1416  10.1896   5.6477 H              1 <1>                0.0640
     41 H151       -30.3668  12.2913   6.3006 H              1 <1>                0.0450
     42 H152       -30.1429  11.8022   7.9888 H              1 <1>                0.0450
     43 H16        -28.7956  11.3816   4.5922 H              1 <1>                0.0455
     44 H171       -28.0821  13.7472   4.5043 H              1 <1>                0.0245
     45 H172       -29.4600  13.5108   5.6063 H              1 <1>                0.0245
     46 H173       -27.8207  13.7261   6.2641 H              1 <1>                0.0245
     47 H181       -26.4358  11.9426   4.1508 H              1 <1>                0.0245
     48 H182       -26.0942  11.8735   5.8965 H              1 <1>                0.0245
     49 H183       -26.5859  10.4006   5.0276 H              1 <1>                0.0245
     50 ****       -28.5174  10.1876   6.6151 LP             1 <1>                0.0000
     51 ****       -35.6352   1.8331   9.0011 LP             1 <1>                0.0000
     52 ****       -35.7220   2.7624   7.5420 LP             1 <1>                0.0000
     53 ****       -35.3207   4.7403   6.7060 LP             1 <1>                0.0000
     54 ****       -34.1432   3.7768   6.1129 LP             1 <1>                0.0000
     55 ****       -30.6188   7.2416   7.9488 LP             1 <1>                0.0000
     56 ****       -31.7021   8.4300   8.2326 LP             1 <1>                0.0000
     57 ****       -32.0520  11.2160   8.0228 LP             1 <1>                0.0000
     58 ****       -32.2366   9.5936   8.0423 LP             1 <1>                0.0000
@<TRIPOS>BOND
    1    1    3 2     
    2    1    5 1     
    3    1    8 1     
    4    2   21 1     
    5    2   22 1     
    6    2   25 1     
    7    4    5 1     
    8    4    6 1     
    9    4   26 1     
   10    4   27 1     
   11    6   28 1     
   12    6   29 1     
   13    6   30 1     
   14    7    8 ar    
   15    7   14 ar    
   16    8   10 ar    
   17    9   18 1     
   18    9   19 1     
   19   10   12 1     
   20   10   13 ar    
   21   11   20 1     
   22   11   31 1     
   23   12   32 1     
   24   12   33 1     
   25   12   34 1     
   26   13   14 ar    
   27   13   18 ar    
   28   14   15 ar    
   29   15   16 ar    
   30   15   35 1     
   31   16   17 ar    
   32   16   36 1     
   33   17   18 ar    
   34   17   37 1     
   35   19   20 1     
   36   19   38 1     
   37   19   39 1     
   38   20   21 1     
   39   20   40 1     
   40   21   41 1     
   41   21   42 1     
   42   22   23 1     
   43   22   24 1     
   44   22   43 1     
   45   23   44 1     
   46   23   45 1     
   47   23   46 1     
   48   24   47 1     
   49   24   48 1     
   50   24   49 1     
   51    2   50 1     
   52    3   51 1     
   53    3   52 1     
   54    7   53 1     
   55    7   54 1     
   56    9   55 1     
   57    9   56 1     
   58   11   57 1     
   59   11   58 1     
@<TRIPOS>SUBSTRUCTURE
      1 ****           1
@<TRIPOS>SET
LONE_PAIRS      STATIC     ATOMS    <user>   **** ""
9 50 51 52 53 54 55 56 57 58
DONOR_HYDROGENS      STATIC     ATOMS    <user>   **** ""
2 25 31
ATOM$BLUE        STATIC     ATOMS    COLORGROUP SYSTEM
9 50 51 52 53 54 55 56 57 58
ATOM$RED        STATIC     ATOMS    COLORGROUP SYSTEM
2 25 31
@<TRIPOS>COMMENT
> <Gold.Version>
5.5

> <Gold.Id.Protein>
unknown|dok_beta2|pdb

> <Gold.Protein.RotatedTorsions>
[ 4175 4166 4165 4163 ] final  -55.23 input -179.98 | X-H torsion
[ 1294 1290 1288 1285 ] final -152.38 input -179.99 | X-H torsion
[ 4033 4024 4023 4021 ] final   56.29 input  179.98 | X-H torsion
[ 1412 1408 1406 1403 ] final -101.32 input -179.99 | X-H torsion
[ 2830 2825 2824 2821 ] final  -91.73 input -179.98 | X-H torsion
[ 2723 2714 2713 2711 ] final    1.63 input -179.98 | X-H torsion
[ 2773 2768 2767 2764 ] final -179.14 input  180.00 | X-H torsion

> <Gold.Protein.ActiveResidues>
 TRP109  THR110  ASP113  VAL114  VAL117  THR118  PHE193  TYR199  SER203  SER207 
 PHE208  TRP286  PHE289  PHE290  ASN293  TYR308  ASN312  TYR316 

> <Gold.Protein.RotatedAtoms>
  -33.8790    3.7463    2.0374 H   0  0  0  0  0  0  0  0  0  0  0  0  # atno 1294 bound_to 1290
  -26.5724   15.0567    2.5998 H   0  0  0  0  0  0  0  0  0  0  0  0  # atno 1412 bound_to 1408
  -26.1534    7.9468    1.2376 H   0  0  0  0  0  0  0  0  0  0  0  0  # atno 2723 bound_to 2714
  -24.6816    9.4140    2.9701 H   0  0  0  0  0  0  0  0  0  0  0  0  # atno 2773 bound_to 2768
  -24.7440   13.9550    2.0698 H   0  0  0  0  0  0  0  0  0  0  0  0  # atno 2830 bound_to 2825
  -29.3759    6.5050   10.7890 H   0  0  0  0  0  0  0  0  0  0  0  0  # atno 4033 bound_to 4024
  -36.8025    8.3454    8.5825 H   0  0  0  0  0  0  0  0  0  0  0  0  # atno 4175 bound_to 4166
  -36.2045    9.2962    7.4426 LP  0  0  0  0  0  0  0  0  0  0  0  0  # atno 4597 bound_to 4166
  -37.7490    8.7717    7.3645 LP  0  0  0  0  0  0  0  0  0  0  0  0  # atno 4598 bound_to 4166
  -35.0851    3.9844    1.0128 LP  0  0  0  0  0  0  0  0  0  0  0  0  # atno 4603 bound_to 1290
  -35.0479    4.7586    2.4501 LP  0  0  0  0  0  0  0  0  0  0  0  0  # atno 4604 bound_to 1290
  -28.2993    5.3242   10.8832 LP  0  0  0  0  0  0  0  0  0  0  0  0  # atno 4607 bound_to 4024
  -28.0103    6.7725   11.5800 LP  0  0  0  0  0  0  0  0  0  0  0  0  # atno 4608 bound_to 4024
  -27.8051   14.4931    1.7489 LP  0  0  0  0  0  0  0  0  0  0  0  0  # atno 4611 bound_to 1408
  -28.0196   15.0133    3.2819 LP  0  0  0  0  0  0  0  0  0  0  0  0  # atno 4612 bound_to 1408
  -24.5314   12.7091    3.0510 LP  0  0  0  0  0  0  0  0  0  0  0  0  # atno 4613 bound_to 2825
  -23.2619   13.6155    2.5681 LP  0  0  0  0  0  0  0  0  0  0  0  0  # atno 4614 bound_to 2825

> <Gold.Score>
     Score     S(PLP)   S(hbond)     S(cho)   S(metal)  DE(clash)   DE(tors)     intcor
     74.52     -72.73       1.00       0.00       0.00       0.00       1.18       1.16

> <Gold.PLP.Fitness>
74.5198

> <Gold.PLP.PLP>
-72.7253

> <Gold.PLP.part.hbond>
-1.0000

> <Gold.PLP.part.metal>
0.0000

> <Gold.PLP.part.buried>
-9.4798

> <Gold.PLP.part.nonpolar>
-64.2171

> <Gold.PLP.part.repulsive>
0.2031

> <Gold.PLP.ligand.clash>
0.0000

> <Gold.PLP.ligand.torsion>
1.1848

> <Gold.PLP.Chemscore.Hbond>
1.0000

> <Gold.PLP.Chemscore.CHOScore>
0.0000

> <Gold.PLP.Chemscore.Metal>
0.0000

> <Gold.Chemscore.Hbonds>
donor molecule, donor type, donor heavy atom, donor atom, acceptor molecule, acceptor atom, score
      L1  H    11    31       P1  1334  1.00

> <Gold.PLP.Chemscore.Internal.Correction>
1.1641

