#       Name:                C:\Users\porto\OneDrive\projekt\beta2\ligandy\L_3ny9.pdb L_3ny9.pdb 1
#       Creating user name   student
#       Creation time:       Mon Apr 08 16:05:15 2019


#       File generated by GOLD software.
#

@<TRIPOS>MOLECULE
C:\Users\porto\OneDrive\projekt\beta2\ligandy\L_3ny9.pdb L_3ny9.pdb 1|3ny9|mol2|1|dock3
    58    59     1
SMALL
GASTEIGER


@<TRIPOS>ATOM
      1 C1         -34.3057   3.3978   8.8919 C.2            1 <1>                0.3751
      2 N1         -26.7407   8.3045   7.7365 N.3            1 <1>               -0.3112
      3 O1         -35.2979   2.7583   8.5865 O.2            1 <1>               -0.2415
      4 C2         -33.9791   2.0579  11.0135 C.3            1 <1>                0.0901
      5 O2         -33.6039   3.1339  10.1440 O.3            1 <1>               -0.4593
      6 C3         -33.2155   2.1724  12.3168 C.3            1 <1>               -0.0306
      7 O3         -34.3610   4.6793   6.7564 O.3            1 <1>               -0.4478
      8 C4         -33.8181   4.4625   7.9844 C.ar           1 <1>                0.2156
      9 O4         -30.9290   7.9041   7.3111 O.3            1 <1>               -0.4886
     10 C5         -32.7382   5.4570   8.1873 C.ar           1 <1>                0.0131
     11 O5         -28.2319  10.3416   6.9716 O.3            1 <1>               -0.3872
     12 C6         -31.7928   5.7172   9.3304 C.3            1 <1>               -0.0352
     13 C7         -32.6807   6.2499   7.0295 C.ar           1 <1>                0.0655
     14 C8         -33.6907   5.7053   6.2295 C.ar           1 <1>                0.1398
     15 C9         -33.9572   6.2257   4.9674 C.ar           1 <1>               -0.0185
     16 C10        -33.2007   7.3009   4.4988 C.ar           1 <1>               -0.0548
     17 C11        -32.1926   7.8494   5.2878 C.ar           1 <1>               -0.0191
     18 C12        -31.9205   7.3269   6.5537 C.ar           1 <1>                0.1316
     19 C13        -30.3702   9.2044   7.0862 C.3            1 <1>                0.1166
     20 C14        -28.8748   9.0778   6.7813 C.3            1 <1>                0.1015
     21 C15        -28.1921   8.0556   7.6862 C.3            1 <1>                0.0254
     22 C16        -26.0035   7.3228   6.8999 C.3            1 <1>                0.0021
     23 C17        -24.5534   7.7706   6.7407 C.3            1 <1>               -0.0499
     24 C18        -26.0603   5.9223   7.5028 C.3            1 <1>               -0.0499
     25 HN1        -26.5462   9.2343   7.3923 H              1 <1>                0.1223
     26 H21        -33.7428   1.1066  10.5368 H              1 <1>                0.0695
     27 H22        -35.0492   2.1095  11.2142 H              1 <1>                0.0695
     28 H31        -33.5006   1.3542  12.9786 H              1 <1>                0.0262
     29 H32        -32.1455   2.1220  12.1168 H              1 <1>                0.0262
     30 H33        -33.4504   3.1236  12.7938 H              1 <1>                0.0262
     31 HO5        -28.8168  10.9294   7.4551 H              1 <1>                0.2100
     32 H61        -31.1406   6.5543   9.0800 H              1 <1>                0.0279
     33 H62        -32.3642   5.9583  10.2272 H              1 <1>                0.0279
     34 H63        -31.1891   4.8278   9.5128 H              1 <1>                0.0279
     35 H9         -34.7420   5.7976   4.3617 H              1 <1>                0.0654
     36 H10        -33.3958   7.7127   3.5191 H              1 <1>                0.0620
     37 H11        -31.6148   8.6853   4.9216 H              1 <1>                0.0654
     38 H131       -30.5086   9.8177   7.9761 H              1 <1>                0.0723
     39 H132       -30.8743   9.6755   6.2423 H              1 <1>                0.0723
     40 H14        -28.7502   8.7701   5.7431 H              1 <1>                0.0640
     41 H151       -28.6079   8.1260   8.6919 H              1 <1>                0.0450
     42 H152       -28.3749   7.0515   7.3026 H              1 <1>                0.0450
     43 H16        -26.4662   7.2935   5.9140 H              1 <1>                0.0455
     44 H171       -24.0152   7.0484   6.1267 H              1 <1>                0.0245
     45 H172       -24.5256   8.7485   6.2598 H              1 <1>                0.0245
     46 H173       -24.0824   7.8351   7.7212 H              1 <1>                0.0245
     47 H181       -25.5110   5.2292   6.8650 H              1 <1>                0.0245
     48 H182       -25.6118   5.9355   8.4959 H              1 <1>                0.0245
     49 H183       -27.0991   5.6009   7.5782 H              1 <1>                0.0245
     50 ****       -26.4407   8.2129   8.6860 LP             1 <1>                0.0000
     51 ****       -35.6394   2.0435   9.1967 LP             1 <1>                0.0000
     52 ****       -35.7700   2.9486   7.7257 LP             1 <1>                0.0000
     53 ****       -35.3313   4.9059   6.8413 LP             1 <1>                0.0000
     54 ****       -34.2575   3.8665   6.1831 LP             1 <1>                0.0000
     55 ****       -30.1563   7.2710   7.2648 LP             1 <1>                0.0000
     56 ****       -31.2864   7.9262   8.2448 LP             1 <1>                0.0000
     57 ****       -28.0171  10.7434   6.0815 LP             1 <1>                0.0000
     58 ****       -27.3873  10.2109   7.4909 LP             1 <1>                0.0000
@<TRIPOS>BOND
    1    1    3 2     
    2    1    5 1     
    3    1    8 1     
    4    2   21 1     
    5    2   22 1     
    6    2   25 1     
    7    4    5 1     
    8    4    6 1     
    9    4   26 1     
   10    4   27 1     
   11    6   28 1     
   12    6   29 1     
   13    6   30 1     
   14    7    8 ar    
   15    7   14 ar    
   16    8   10 ar    
   17    9   18 1     
   18    9   19 1     
   19   10   12 1     
   20   10   13 ar    
   21   11   20 1     
   22   11   31 1     
   23   12   32 1     
   24   12   33 1     
   25   12   34 1     
   26   13   14 ar    
   27   13   18 ar    
   28   14   15 ar    
   29   15   16 ar    
   30   15   35 1     
   31   16   17 ar    
   32   16   36 1     
   33   17   18 ar    
   34   17   37 1     
   35   19   20 1     
   36   19   38 1     
   37   19   39 1     
   38   20   21 1     
   39   20   40 1     
   40   21   41 1     
   41   21   42 1     
   42   22   23 1     
   43   22   24 1     
   44   22   43 1     
   45   23   44 1     
   46   23   45 1     
   47   23   46 1     
   48   24   47 1     
   49   24   48 1     
   50   24   49 1     
   51    2   50 1     
   52    3   51 1     
   53    3   52 1     
   54    7   53 1     
   55    7   54 1     
   56    9   55 1     
   57    9   56 1     
   58   11   57 1     
   59   11   58 1     
@<TRIPOS>SUBSTRUCTURE
      1 ****           1
@<TRIPOS>SET
LONE_PAIRS      STATIC     ATOMS    <user>   **** ""
9 50 51 52 53 54 55 56 57 58
DONOR_HYDROGENS      STATIC     ATOMS    <user>   **** ""
2 25 31
ATOM$BLUE        STATIC     ATOMS    COLORGROUP SYSTEM
9 50 51 52 53 54 55 56 57 58
ATOM$RED        STATIC     ATOMS    COLORGROUP SYSTEM
2 25 31
@<TRIPOS>COMMENT
> <Gold.Version>
5.5

> <Gold.Id.Protein>
unknown|dok_beta2|pdb

> <Gold.Protein.RotatedTorsions>
[ 4175 4166 4165 4163 ] final   90.96 input -179.98 | X-H torsion
[ 1294 1290 1288 1285 ] final    5.42 input -179.99 | X-H torsion
[ 4033 4024 4023 4021 ] final -138.93 input  179.98 | X-H torsion
[ 1412 1408 1406 1403 ] final   80.46 input -179.99 | X-H torsion
[ 2830 2825 2824 2821 ] final  -58.67 input -179.98 | X-H torsion
[ 2723 2714 2713 2711 ] final   39.29 input -179.98 | X-H torsion
[ 2773 2768 2767 2764 ] final -121.93 input  180.00 | X-H torsion

> <Gold.Protein.ActiveResidues>
 TRP109  THR110  ASP113  VAL114  VAL117  THR118  PHE193  TYR199  SER203  SER207 
 PHE208  TRP286  PHE289  PHE290  ASN293  TYR308  ASN312  TYR316 

> <Gold.Protein.RotatedAtoms>
  -35.3666    4.7120    1.9442 H   0  0  0  0  0  0  0  0  0  0  0  0  # atno 1294 bound_to 1290
  -28.3332   14.6644    2.4567 H   0  0  0  0  0  0  0  0  0  0  0  0  # atno 1412 bound_to 1408
  -26.4876    7.4738    1.1622 H   0  0  0  0  0  0  0  0  0  0  0  0  # atno 2723 bound_to 2714
  -24.6596    9.8277    3.7310 H   0  0  0  0  0  0  0  0  0  0  0  0  # atno 2773 bound_to 2768
  -24.2703   14.1454    2.0037 H   0  0  0  0  0  0  0  0  0  0  0  0  # atno 2830 bound_to 2825
  -27.7634    6.1204   11.4763 H   0  0  0  0  0  0  0  0  0  0  0  0  # atno 4033 bound_to 4024
  -37.4928    9.0243    7.1473 H   0  0  0  0  0  0  0  0  0  0  0  0  # atno 4175 bound_to 4166
  -37.1998    8.2316    8.5062 LP  0  0  0  0  0  0  0  0  0  0  0  0  # atno 4597 bound_to 4166
  -36.0340    9.1286    7.7970 LP  0  0  0  0  0  0  0  0  0  0  0  0  # atno 4598 bound_to 4166
  -34.0095    4.0845    2.5151 LP  0  0  0  0  0  0  0  0  0  0  0  0  # atno 4603 bound_to 1290
  -34.5734    3.6521    1.0448 LP  0  0  0  0  0  0  0  0  0  0  0  0  # atno 4604 bound_to 1290
  -29.0443    7.0191   11.1392 LP  0  0  0  0  0  0  0  0  0  0  0  0  # atno 4607 bound_to 4024
  -28.9448    5.4781   10.6081 LP  0  0  0  0  0  0  0  0  0  0  0  0  # atno 4608 bound_to 4024
  -27.1269   15.2123    3.3544 LP  0  0  0  0  0  0  0  0  0  0  0  0  # atno 4611 bound_to 1408
  -26.8630   14.7030    1.8255 LP  0  0  0  0  0  0  0  0  0  0  0  0  # atno 4612 bound_to 1408
  -24.9493   12.9374    2.8036 LP  0  0  0  0  0  0  0  0  0  0  0  0  # atno 4613 bound_to 2825
  -23.3378   13.1888    2.8844 LP  0  0  0  0  0  0  0  0  0  0  0  0  # atno 4614 bound_to 2825

> <Gold.Score>
     Score     S(PLP)   S(hbond)     S(cho)   S(metal)  DE(clash)   DE(tors)     intcor
     68.77     -70.56       0.01       0.00       0.00       0.00       1.42       1.00

> <Gold.PLP.Fitness>
68.7712

> <Gold.PLP.PLP>
-70.5603

> <Gold.PLP.part.hbond>
-1.0000

> <Gold.PLP.part.metal>
0.0000

> <Gold.PLP.part.buried>
-9.4207

> <Gold.PLP.part.nonpolar>
-61.1353

> <Gold.PLP.part.repulsive>
0.1577

> <Gold.PLP.ligand.clash>
0.0000

> <Gold.PLP.ligand.torsion>
1.4152

> <Gold.PLP.Chemscore.Hbond>
0.0145

> <Gold.PLP.Chemscore.CHOScore>
0.0000

> <Gold.PLP.Chemscore.Metal>
0.0000

> <Gold.Chemscore.Hbonds>
donor molecule, donor type, donor heavy atom, donor atom, acceptor molecule, acceptor atom, score
      P1  H  3760  3767       L1     2  0.01

> <Gold.PLP.Chemscore.Internal.Correction>
0.9978

