#       Name:                C:\Users\porto\OneDrive\projekt\beta2\ligandy\L_4qkx.pdb L_4qkx.pdb 1
#       Creating user name   student
#       Creation time:       Mon Apr 08 15:46:13 2019


#       File generated by GOLD software.
#

@<TRIPOS>MOLECULE
C:\Users\porto\OneDrive\projekt\beta2\ligandy\L_4qkx.pdb L_4qkx.pdb 1|4qkx|mol2|1|dock2
    62    63     1
SMALL
GASTEIGER


@<TRIPOS>ATOM
      1 CAA        -32.8679   2.6472  11.3416 C.3            1 <1>                0.0790
      2 CAF        -25.3998  10.0005   7.2047 C.ar           1 <1>               -0.0162
      3 CAG        -34.5245   5.7204   7.8848 C.ar           1 <1>               -0.0548
      4 CAH        -26.1534   8.9847   7.7793 C.ar           1 <1>               -0.0524
      5 CAI        -35.6564   5.1111   8.4211 C.ar           1 <1>               -0.0160
      6 CAJ        -27.3067   8.5784   5.6964 C.ar           1 <1>               -0.0109
      7 CAK        -33.1400   4.4226   9.3737 C.ar           1 <1>               -0.0131
      8 CAL        -38.9131   3.9402  10.5003 C.3            1 <1>                0.0249
      9 CAM        -31.0919   6.0477   9.0395 C.3            1 <1>               -0.0000
     10 CAN        -37.8069   3.9834   9.4383 C.3            1 <1>                0.0985
     11 CAO        -32.0743   5.9189   7.8659 C.3            1 <1>               -0.0150
     12 CAP        -29.3000   7.6132   7.9229 C.3            1 <1>                0.0261
     13 CAT        -25.6119  10.2973   5.8682 C.ar           1 <1>                0.1582
     14 CAU        -26.5535   9.5962   5.1225 C.ar           1 <1>                0.1586
     15 CAV        -33.2611   5.3796   8.3705 C.ar           1 <1>               -0.0425
     16 CAW        -27.1050   8.2895   7.0389 C.ar           1 <1>               -0.0143
     17 CAX        -35.5210   4.1660   9.4282 C.ar           1 <1>                0.1619
     18 CAY        -34.2630   3.8144   9.8991 C.ar           1 <1>                0.1618
     19 CAZ        -27.8239   7.2746   7.6595 C.3            1 <1>                0.0927
     20 NAQ        -29.7267   6.4057   8.6290 N.3            1 <1>               -0.3129
     21 OAB        -24.9168  11.2758   5.2293 O.3            1 <1>               -0.5033
     22 OAC        -26.6961   9.9554   3.8177 O.3            1 <1>               -0.5033
     23 OAD        -27.2077   6.8322   8.8794 O.3            1 <1>               -0.3859
     24 OAR        -34.2085   2.8966  10.9005 O.3            1 <1>               -0.4914
     25 OAS        -36.5757   3.5323  10.0095 O.3            1 <1>               -0.4875
     26 SAE        -39.1535   2.2557  11.1668 S.3            1 <1>               -0.1749
     27 HAA1       -32.8797   1.9076  12.1419 H              1 <1>                0.0660
     28 HAA2       -32.2745   2.2704  10.5086 H              1 <1>                0.0660
     29 HAA3       -32.4280   3.5736  11.7106 H              1 <1>                0.0660
     30 HAF        -24.6722  10.5354   7.7978 H              1 <1>                0.0655
     31 HAG        -34.6269   6.4524   7.0979 H              1 <1>                0.0621
     32 HAH        -26.0051   8.7234   8.8165 H              1 <1>                0.0622
     33 HAI        -36.6372   5.3741   8.0533 H              1 <1>                0.0655
     34 HAJ        -28.0250   8.0368   5.0997 H              1 <1>                0.0659
     35 HAK        -32.1600   4.1565   9.7410 H              1 <1>                0.0658
     36 HAL1       -38.6613   4.6200  11.3147 H              1 <1>                0.0407
     37 HAL2       -39.8471   4.2949  10.0650 H              1 <1>                0.0407
     38 HAM1       -31.0680   5.1101   9.5962 H              1 <1>                0.0427
     39 HAM2       -31.4646   6.7917   9.7431 H              1 <1>                0.0427
     40 HAN1       -37.6881   5.0054   9.0794 H              1 <1>                0.0705
     41 HAN2       -38.0784   3.3370   8.6041 H              1 <1>                0.0705
     42 HAO1       -31.6584   5.2442   7.1176 H              1 <1>                0.0325
     43 HAO2       -32.2734   6.9059   7.4490 H              1 <1>                0.0325
     44 HAP1       -29.3541   8.4621   8.6039 H              1 <1>                0.0453
     45 HAP2       -29.8269   7.6738   6.9710 H              1 <1>                0.0453
     46 HAZ        -27.8155   6.4239   6.9786 H              1 <1>                0.0656
     47 HNAQ       -29.1331   6.4622   9.4442 H              1 <1>                0.1220
     48 HOAB       -25.2050  11.3291   4.3151 H              1 <1>                0.2923
     49 HOAC       -26.0910  10.6725   3.6146 H              1 <1>                0.2923
     50 HOAD       -26.2864   6.6208   8.7148 H              1 <1>                0.2103
     51 HSAE       -40.1247   2.2737  12.0840 H              1 <1>                0.1017
     52 ****       -29.6708   5.6804   7.9429 LP             1 <1>                0.0000
     53 ****       -23.9399  11.0641   5.2589 LP             1 <1>                0.0000
     54 ****       -25.0819  12.1518   5.6824 LP             1 <1>                0.0000
     55 ****       -27.6358  10.2564   3.6558 LP             1 <1>                0.0000
     56 ****       -26.4917   9.1711   3.2319 LP             1 <1>                0.0000
     57 ****       -27.6813   6.0182   9.2157 LP             1 <1>                0.0000
     58 ****       -27.2657   7.5584   9.5644 LP             1 <1>                0.0000
     59 ****       -34.7437   3.2342  11.6748 LP             1 <1>                0.0000
     60 ****       -34.6030   2.0387  10.5714 LP             1 <1>                0.0000
     61 ****       -36.4876   2.5466   9.8655 LP             1 <1>                0.0000
     62 ****       -36.5769   3.7271  10.9903 LP             1 <1>                0.0000
@<TRIPOS>BOND
    1    1   24 1     
    2    1   27 1     
    3    1   28 1     
    4    1   29 1     
    5    2    4 ar    
    6    2   13 ar    
    7    2   30 1     
    8    3    5 ar    
    9    3   15 ar    
   10    3   31 1     
   11    4   16 ar    
   12    4   32 1     
   13    5   17 ar    
   14    5   33 1     
   15    6   14 ar    
   16    6   16 ar    
   17    6   34 1     
   18    7   18 ar    
   19    7   15 ar    
   20    7   35 1     
   21    8   26 1     
   22    8   10 1     
   23    8   36 1     
   24    8   37 1     
   25    9   11 1     
   26    9   20 1     
   27    9   38 1     
   28    9   39 1     
   29   10   25 1     
   30   10   40 1     
   31   10   41 1     
   32   11   15 1     
   33   11   42 1     
   34   11   43 1     
   35   12   20 1     
   36   12   19 1     
   37   12   44 1     
   38   12   45 1     
   39   13   21 1     
   40   13   14 ar    
   41   14   22 1     
   42   16   19 1     
   43   17   25 1     
   44   17   18 ar    
   45   18   24 1     
   46   19   23 1     
   47   19   46 1     
   48   20   47 1     
   49   21   48 1     
   50   22   49 1     
   51   23   50 1     
   52   26   51 1     
   53   20   52 1     
   54   21   53 1     
   55   21   54 1     
   56   22   55 1     
   57   22   56 1     
   58   23   57 1     
   59   23   58 1     
   60   24   59 1     
   61   24   60 1     
   62   25   61 1     
   63   25   62 1     
@<TRIPOS>SUBSTRUCTURE
      1 ****           1
@<TRIPOS>SET
LONE_PAIRS      STATIC     ATOMS    <user>   **** ""
11 52 53 54 55 56 57 58 59 60 61 62
DONOR_HYDROGENS      STATIC     ATOMS    <user>   **** ""
4 47 48 49 50
ATOM$BLUE        STATIC     ATOMS    COLORGROUP SYSTEM
11 52 53 54 55 56 57 58 59 60 61 62
ATOM$RED        STATIC     ATOMS    COLORGROUP SYSTEM
4 47 48 49 50
@<TRIPOS>COMMENT
> <Gold.Version>
5.5

> <Gold.Id.Protein>
unknown|dok_beta2|pdb

> <Gold.Protein.RotatedTorsions>
[ 4175 4166 4165 4163 ] final -106.12 input -179.98 | X-H torsion
[ 1294 1290 1288 1285 ] final -179.92 input -179.99 | X-H torsion
[ 4033 4024 4023 4021 ] final -113.81 input  179.98 | X-H torsion
[ 1412 1408 1406 1403 ] final  177.30 input -179.99 | X-H torsion
[ 2830 2825 2824 2821 ] final  -57.77 input -179.98 | X-H torsion
[ 2723 2714 2713 2711 ] final -113.49 input -179.98 | X-H torsion
[ 2773 2768 2767 2764 ] final  -86.40 input  180.00 | X-H torsion

> <Gold.Protein.ActiveResidues>
 TRP109  THR110  ASP113  VAL114  VAL117  THR118  PHE193  TYR199  SER203  SER207 
 PHE208  TRP286  PHE289  PHE290  ASN293  TYR308  ASN312  TYR316 

> <Gold.Protein.RotatedAtoms>
  -33.9766    3.5952    1.6459 H   0  0  0  0  0  0  0  0  0  0  0  0  # atno 1294 bound_to 1290
  -27.2050   14.6087    1.7103 H   0  0  0  0  0  0  0  0  0  0  0  0  # atno 1412 bound_to 1408
  -26.2437    8.2150    2.7385 H   0  0  0  0  0  0  0  0  0  0  0  0  # atno 2723 bound_to 2714
  -24.4144   10.2903    3.9062 H   0  0  0  0  0  0  0  0  0  0  0  0  # atno 2773 bound_to 2768
  -24.2563   14.1475    2.0044 H   0  0  0  0  0  0  0  0  0  0  0  0  # atno 2830 bound_to 2825
  -27.8168    5.7656   11.3146 H   0  0  0  0  0  0  0  0  0  0  0  0  # atno 4033 bound_to 4024
  -36.1817    8.7404    8.3315 H   0  0  0  0  0  0  0  0  0  0  0  0  # atno 4175 bound_to 4166
  -36.8951    9.3150    7.0193 LP  0  0  0  0  0  0  0  0  0  0  0  0  # atno 4597 bound_to 4166
  -37.7055    8.3411    8.0495 LP  0  0  0  0  0  0  0  0  0  0  0  0  # atno 4598 bound_to 4166
  -35.3562    4.2811    1.2128 LP  0  0  0  0  0  0  0  0  0  0  0  0  # atno 4603 bound_to 1290
  -34.6753    4.6194    2.6580 LP  0  0  0  0  0  0  0  0  0  0  0  0  # atno 4604 bound_to 1290
  -28.7005    7.0998   11.3473 LP  0  0  0  0  0  0  0  0  0  0  0  0  # atno 4607 bound_to 4024
  -29.2330    5.7670   10.5684 LP  0  0  0  0  0  0  0  0  0  0  0  0  # atno 4608 bound_to 4024
  -28.3539   14.7766    2.8118 LP  0  0  0  0  0  0  0  0  0  0  0  0  # atno 4611 bound_to 1408
  -26.8116   15.1967    3.1459 LP  0  0  0  0  0  0  0  0  0  0  0  0  # atno 4612 bound_to 1408
  -24.9577   12.9463    2.7952 LP  0  0  0  0  0  0  0  0  0  0  0  0  # atno 4613 bound_to 2825
  -23.3441   13.1777    2.8919 LP  0  0  0  0  0  0  0  0  0  0  0  0  # atno 4614 bound_to 2825

> <Gold.Score>
     Score     S(PLP)   S(hbond)     S(cho)   S(metal)  DE(clash)   DE(tors)     intcor
     57.86     -51.86       2.00       0.00       0.00       0.00       0.00       0.00

> <Gold.PLP.Fitness>
57.8620

> <Gold.PLP.PLP>
-51.8620

> <Gold.PLP.part.hbond>
-8.6656

> <Gold.PLP.part.metal>
0.0000

> <Gold.PLP.part.buried>
5.3673

> <Gold.PLP.part.nonpolar>
-50.1449

> <Gold.PLP.part.repulsive>
0.0000

> <Gold.PLP.ligand.clash>
0.0000

> <Gold.PLP.ligand.torsion>
0.0000

> <Gold.PLP.Chemscore.Hbond>
2.0000

> <Gold.PLP.Chemscore.CHOScore>
0.0000

> <Gold.PLP.Chemscore.Metal>
0.0000

> <Gold.Chemscore.Hbonds>
donor molecule, donor type, donor heavy atom, donor atom, acceptor molecule, acceptor atom, score
      L1  H    20    47       P1  4024  1.00
      P1  H  2714  2723       L1    22  1.00

> <Gold.PLP.Chemscore.Internal.Correction>
0.0000

