#       Name:                *****
#       Creating user name   student
#       Creation time:       Mon Mar 18 16:45:44 2019


#       File generated by GOLD software.
#

@<TRIPOS>MOLECULE
*****
    61    64     1
SMALL
GASTEIGER


@<TRIPOS>ATOM
      1 C           -5.0394  -3.8607   3.4965 C.3            1 <1>                0.0196
      2 N           -3.7576  -3.9311   2.8282 N.am           1 <1>               -0.2622
      3 C           -3.1475  -5.1908   2.6630 C.ar           1 <1>                0.3331
      4 O           -3.6845  -6.2227   3.0750 O.2            1 <1>               -0.2462
      5 N           -1.9107  -5.2215   2.0143 N.am           1 <1>               -0.2796
      6 C           -1.2112  -6.4756   1.8033 C.3            1 <1>                0.0181
      7 C           -1.3482  -4.0468   1.5801 C.ar           1 <1>                0.1678
      8 N           -0.1510  -3.9161   0.9421 N.ar           1 <1>               -0.2177
      9 C           -0.0315  -2.6208   0.7352 C.ar           1 <1>                0.0989
     10 N           -1.1164  -1.9337   1.2153 N.pl3          1 <1>               -0.3246
     11 C           -1.2913  -0.4994   1.1670 C.3            1 <1>                0.0249
     12 C           -2.0867  -0.0627  -0.0609 C.3            1 <1>               -0.0349
     13 C           -2.2465   1.4551  -0.1345 C.3            1 <1>               -0.0503
     14 C           -0.9301   2.2370  -0.1204 C.3            1 <1>               -0.0401
     15 C           -0.0006   1.8674  -1.2863 C.3            1 <1>               -0.0008
     16 N            1.3267   2.4883  -1.1915 N.3            1 <1>               -0.2978
     17 C            1.2719   3.9566  -1.2052 C.3            1 <1>                0.0032
     18 C            2.6546   4.5410  -0.9047 C.3            1 <1>               -0.0146
     19 C            3.7212   3.9594  -1.7907 C.ar           1 <1>               -0.0418
     20 C            4.9487   4.6160  -1.9329 C.ar           1 <1>               -0.0582
     21 C            5.9456   4.0724  -2.7399 C.ar           1 <1>               -0.0615
     22 C            5.7253   2.8667  -3.4018 C.ar           1 <1>               -0.0614
     23 C            4.5107   2.1967  -3.2495 C.ar           1 <1>               -0.0571
     24 C            3.5031   2.7278  -2.4312 C.ar           1 <1>               -0.0302
     25 C            2.1737   2.0135  -2.3108 C.3            1 <1>                0.0243
     26 C           -1.9673  -2.8486   1.7591 C.ar           1 <1>                0.1514
     27 C           -3.2304  -2.7101   2.3920 C.ar           1 <1>                0.2822
     28 O           -3.7995  -1.6297   2.5331 O.2            1 <1>               -0.2652
     29 H           -5.4105  -4.8391   3.8086 H              1 <1>                0.0458
     30 H           -5.7680  -3.4028   2.8192 H              1 <1>                0.0458
     31 H           -4.9424  -3.2187   4.3785 H              1 <1>                0.0458
     32 H           -1.7735  -7.3281   2.1924 H              1 <1>                0.0458
     33 H           -0.2425  -6.4333   2.3117 H              1 <1>                0.0458
     34 H           -1.0535  -6.6186   0.7294 H              1 <1>                0.0458
     35 H            0.8055  -2.1315   0.2513 H              1 <1>                0.1029
     36 H           -0.2858  -0.0672   1.1737 H              1 <1>                0.0492
     37 H           -1.7836  -0.1794   2.0910 H              1 <1>                0.0492
     38 H           -3.0840  -0.5196  -0.0452 H              1 <1>                0.0282
     39 H           -1.6108  -0.4384  -0.9747 H              1 <1>                0.0282
     40 H           -2.8573   1.7894   0.7135 H              1 <1>                0.0266
     41 H           -2.8069   1.7111  -1.0418 H              1 <1>                0.0266
     42 H           -0.4132   2.0907   0.8356 H              1 <1>                0.0278
     43 H           -1.1922   3.2995  -0.1656 H              1 <1>                0.0278
     44 H           -0.4913   2.1197  -2.2346 H              1 <1>                0.0427
     45 H            0.1541   0.7826  -1.2821 H              1 <1>                0.0427
     46 H            0.6032   4.3401  -0.4289 H              1 <1>                0.0430
     47 H            0.8952   4.3218  -2.1699 H              1 <1>                0.0430
     48 H            2.9225   4.3348   0.1396 H              1 <1>                0.0326
     49 H            2.6107   5.6286  -1.0327 H              1 <1>                0.0326
     50 H            5.1297   5.5550  -1.4149 H              1 <1>                0.0620
     51 H            6.8942   4.5906  -2.8516 H              1 <1>                0.0618
     52 H            6.5013   2.4478  -4.0367 H              1 <1>                0.0618
     53 H            4.3528   1.2576  -3.7747 H              1 <1>                0.0621
     54 H            2.3701   0.9432  -2.1664 H              1 <1>                0.0476
     55 H            1.6473   2.1350  -3.2674 H              1 <1>                0.0476
     56 ****        -4.5703  -6.1753   3.5367 LP             1 <1>                0.0000
     57 ****        -3.2339  -7.1062   2.9471 LP             1 <1>                0.0000
     58 ****         0.4911  -4.6395   0.6885 LP             1 <1>                0.0000
     59 ****         1.7185   2.2169  -0.3124 LP             1 <1>                0.0000
     60 ****        -3.3724  -0.7915   2.1938 LP             1 <1>                0.0000
     61 ****        -4.6896  -1.5889   2.9871 LP             1 <1>                0.0000
@<TRIPOS>BOND
    1    1    2 1     
    2    2    3 am    
    3    3    4 2     
    4    3    5 am    
    5    5    6 1     
    6    5    7 ar    
    7    7    8 ar    
    8    8    9 ar    
    9    9   10 ar    
   10   10   11 1     
   11   11   12 1     
   12   12   13 1     
   13   13   14 1     
   14   14   15 1     
   15   15   16 1     
   16   16   17 1     
   17   17   18 1     
   18   18   19 1     
   19   19   20 ar    
   20   20   21 ar    
   21   21   22 ar    
   22   22   23 ar    
   23   23   24 ar    
   24   19   24 ar    
   25   24   25 1     
   26   16   25 1     
   27   10   26 ar    
   28    7   26 ar    
   29   26   27 ar    
   30    2   27 am    
   31   27   28 2     
   32    1   29 1     
   33    1   30 1     
   34    1   31 1     
   35    6   32 1     
   36    6   33 1     
   37    6   34 1     
   38    9   35 1     
   39   11   36 1     
   40   11   37 1     
   41   12   38 1     
   42   12   39 1     
   43   13   40 1     
   44   13   41 1     
   45   14   42 1     
   46   14   43 1     
   47   15   44 1     
   48   15   45 1     
   49   17   46 1     
   50   17   47 1     
   51   18   48 1     
   52   18   49 1     
   53   20   50 1     
   54   21   51 1     
   55   22   52 1     
   56   23   53 1     
   57   25   54 1     
   58   25   55 1     
   59    4   56 1     
   60    4   57 1     
   61    8   58 1     
   62   16   59 1     
   63   28   60 1     
   64   28   61 1     
@<TRIPOS>SUBSTRUCTURE
      1 ****           1
@<TRIPOS>SET
LONE_PAIRS      STATIC     ATOMS    <user>   **** ""
6 56 57 58 59 60 61
ATOM$BLUE        STATIC     ATOMS    COLORGROUP SYSTEM
6 56 57 58 59 60 61
