#       Name:                C:\Users\porto\OneDrive\projekt\beta1\ligandy\L_6h7n.pdb L_6h7n.pdb 1
#       Creating user name   student
#       Creation time:       Mon Apr 08 16:29:54 2019


#       File generated by GOLD software.
#

@<TRIPOS>MOLECULE
C:\Users\porto\OneDrive\projekt\beta1\ligandy\L_6h7n.pdb L_6h7n.pdb 1|6h7n|mol2|1|dock73
    60    61     1
SMALL
GASTEIGER


@<TRIPOS>ATOM
      1 C1         -23.7241   2.8951  13.7720 C.3            1 <1>                0.0396
      2 N1         -23.7589   4.3337  14.0254 N.am           1 <1>               -0.2813
      3 O1         -22.9909   3.2888  11.5070 O.3            1 <1>               -0.3767
      4 C2         -22.6965   2.5942  12.7117 C.3            1 <1>                0.0635
      5 N2         -23.4797   6.1217  15.4877 N.am           1 <1>               -0.2980
      6 O2         -23.7838   4.0738  16.2717 O.2            1 <1>               -0.2526
      7 C3         -22.9705   4.6919  11.7429 C.3            1 <1>                0.0635
      8 N3         -23.6825   8.9784  17.8424 N.3            1 <1>               -0.3119
      9 O3         -24.3329  12.7061  19.7562 O.3            1 <1>               -0.4894
     10 C4         -23.9612   5.1083  12.8032 C.3            1 <1>                0.0396
     11 O4         -28.1991  16.0026  17.6077 O.3            1 <1>               -0.5068
     12 C5         -23.6575   4.8266  15.3079 C.2            1 <1>                0.3024
     13 O5         -24.5426  10.1226  20.2634 O.3            1 <1>               -0.3872
     14 C6         -23.4087   6.7276  16.8114 C.3            1 <1>                0.0256
     15 C7         -23.0714   8.2038  16.7595 C.3            1 <1>                0.0116
     16 C8         -22.7050   9.5005  18.7979 C.3            1 <1>                0.0252
     17 C9         -23.3038  10.5560  19.7186 C.3            1 <1>                0.1015
     18 C10        -23.5128  11.8448  18.9536 C.3            1 <1>                0.1166
     19 C11        -25.2693  13.5137  19.1588 C.ar           1 <1>                0.1209
     20 C12        -26.1414  14.1798  20.0098 C.ar           1 <1>               -0.0165
     21 C13        -27.1213  15.0175  19.4964 C.ar           1 <1>               -0.0167
     22 C14        -27.2420  15.1898  18.1269 C.ar           1 <1>                0.1171
     23 C15        -26.3760  14.5253  17.2784 C.ar           1 <1>               -0.0167
     24 C16        -25.3950  13.6913  17.7862 C.ar           1 <1>               -0.0165
     25 H11        -24.7047   2.5629  13.4323 H              1 <1>                0.0488
     26 H12        -23.4622   2.3713  14.6910 H              1 <1>                0.0488
     27 H21        -22.6794   1.5219  12.5170 H              1 <1>                0.0575
     28 H22        -21.7094   2.8887  13.0688 H              1 <1>                0.0575
     29 HN2        -23.3868   6.7343  14.6895 H              1 <1>                0.1503
     30 H31        -23.1902   5.2181  10.8142 H              1 <1>                0.0575
     31 H32        -21.9681   4.9938  12.0449 H              1 <1>                0.0575
     32 HN3        -24.3329   8.3725  18.3220 H              1 <1>                0.1221
     33 H41        -23.8355   6.1694  13.0202 H              1 <1>                0.0488
     34 H42        -24.9750   4.9483  12.4354 H              1 <1>                0.0488
     35 HO4        -27.8226  16.8667  17.4276 H              1 <1>                0.2921
     36 HO5        -24.7873   9.2804  19.8725 H              1 <1>                0.2100
     37 H61        -22.6611   6.2053  17.4089 H              1 <1>                0.0475
     38 H62        -24.3606   6.5917  17.3238 H              1 <1>                0.0475
     39 H71        -21.9888   8.3296  16.7914 H              1 <1>                0.0439
     40 H72        -23.3855   8.6130  15.7998 H              1 <1>                0.0439
     41 H81        -21.8612   9.9283  18.2564 H              1 <1>                0.0450
     42 H82        -22.3089   8.6796  19.3960 H              1 <1>                0.0450
     43 H9         -22.6083  10.7432  20.5363 H              1 <1>                0.0640
     44 H101       -22.5486  12.3225  18.7768 H              1 <1>                0.0723
     45 H102       -24.0222  11.6305  18.0137 H              1 <1>                0.0723
     46 H12        -26.0595  14.0480  21.0786 H              1 <1>                0.0655
     47 H13        -27.7918  15.5368  20.1646 H              1 <1>                0.0655
     48 H15        -26.4616  14.6553  16.2095 H              1 <1>                0.0655
     49 H16        -24.7254  13.1780  17.1119 H              1 <1>                0.0655
     50 ****       -23.8975   3.0199  11.1817 LP             1 <1>                0.0000
     51 ****       -22.3066   3.0584  10.8152 LP             1 <1>                0.0000
     52 ****       -23.9607   3.1004  16.1260 LP             1 <1>                0.0000
     53 ****       -23.7096   4.4348  17.2013 LP             1 <1>                0.0000
     54 ****       -24.1372   9.7739  17.4418 LP             1 <1>                0.0000
     55 ****       -23.7131  13.3069  20.2610 LP             1 <1>                0.0000
     56 ****       -24.8254  12.1193  20.3989 LP             1 <1>                0.0000
     57 ****       -28.9486  16.0957  18.2632 LP             1 <1>                0.0000
     58 ****       -28.5469  15.6070  16.7577 LP             1 <1>                0.0000
     59 ****       -25.2499  10.8008  20.0639 LP             1 <1>                0.0000
     60 ****       -24.4523  10.0167  21.2537 LP             1 <1>                0.0000
@<TRIPOS>BOND
    1    1    2 1     
    2    1    4 1     
    3    1   25 1     
    4    1   26 1     
    5    2   10 1     
    6    2   12 am    
    7    3    4 1     
    8    3    7 1     
    9    4   27 1     
   10    4   28 1     
   11    5   12 am    
   12    5   14 1     
   13    5   29 1     
   14    6   12 2     
   15    7   10 1     
   16    7   30 1     
   17    7   31 1     
   18    8   16 1     
   19    8   15 1     
   20    8   32 1     
   21    9   18 1     
   22    9   19 1     
   23   10   33 1     
   24   10   34 1     
   25   11   22 1     
   26   11   35 1     
   27   13   17 1     
   28   13   36 1     
   29   14   15 1     
   30   14   37 1     
   31   14   38 1     
   32   15   39 1     
   33   15   40 1     
   34   16   17 1     
   35   16   41 1     
   36   16   42 1     
   37   17   18 1     
   38   17   43 1     
   39   18   44 1     
   40   18   45 1     
   41   19   20 ar    
   42   19   24 ar    
   43   20   21 ar    
   44   20   46 1     
   45   21   22 ar    
   46   21   47 1     
   47   22   23 ar    
   48   23   24 ar    
   49   23   48 1     
   50   24   49 1     
   51    3   50 1     
   52    3   51 1     
   53    6   52 1     
   54    6   53 1     
   55    8   54 1     
   56    9   55 1     
   57    9   56 1     
   58   11   57 1     
   59   11   58 1     
   60   13   59 1     
   61   13   60 1     
@<TRIPOS>SUBSTRUCTURE
      1 ****           1
@<TRIPOS>SET
LONE_PAIRS      STATIC     ATOMS    <user>   **** ""
11 50 51 52 53 54 55 56 57 58 59 60
DONOR_HYDROGENS      STATIC     ATOMS    <user>   **** ""
4 29 32 35 36
ATOM$BLUE        STATIC     ATOMS    COLORGROUP SYSTEM
11 50 51 52 53 54 55 56 57 58 59 60
ATOM$RED        STATIC     ATOMS    COLORGROUP SYSTEM
4 29 32 35 36
@<TRIPOS>COMMENT
> <Gold.Version>
5.5

> <Gold.Id.Protein>
unknown|bialko_beta1|pdb

> <Gold.Protein.ActiveResidues>
 ALA86   ASP87   VAL90   VAL94   VAL95   GLY98   ALA99   LEU101  VAL102  CYS114 
 GLU115  TRP117  THR118  SER119  LEU120  ASP121  VAL122  CYS124  VAL125  THR126 
 SER128  SER173  PHE174  ILE177  CYS199  ASP200  PHE201  TYR207  SER215  PHE299 
 TRP303  PHE306  PHE307  ASN310  PHE325  VAL326  ASN329  TRP330  GLY332  TYR333 
 SER336 

> <Gold.Score>
     Score     S(PLP)   S(hbond)     S(cho)   S(metal)  DE(clash)   DE(tors)     intcor
     74.07     -70.04       2.00       0.00       0.00       0.00       1.20       0.43

> <Gold.PLP.Fitness>
74.0717

> <Gold.PLP.PLP>
-70.0420

> <Gold.PLP.part.hbond>
-2.0000

> <Gold.PLP.part.metal>
0.0000

> <Gold.PLP.part.buried>
-9.7441

> <Gold.PLP.part.nonpolar>
-59.4717

> <Gold.PLP.part.repulsive>
1.0251

> <Gold.PLP.ligand.clash>
0.0000

> <Gold.PLP.ligand.torsion>
1.1979

> <Gold.PLP.Chemscore.Hbond>
2.0000

> <Gold.PLP.Chemscore.CHOScore>
0.0000

> <Gold.PLP.Chemscore.Metal>
0.0000

> <Gold.Chemscore.Hbonds>
donor molecule, donor type, donor heavy atom, donor atom, acceptor molecule, acceptor atom, score
      L1  H     8    32       P1  2066  1.00
      L1  H    13    36       P1  2066  1.00

> <Gold.PLP.Chemscore.Internal.Correction>
0.4256

