#       Name:                C:\Users\porto\OneDrive\projekt\beta1\ligandy\L_5a8e.pdb L_5a8e.pdb 1
#       Creating user name   mateusz
#       Creation time:       Wed Apr  3 10:14:17 2019


#       File generated by GOLD software.
#

@<TRIPOS>MOLECULE
C:\Users\porto\OneDrive\projekt\beta1\ligandy\L_5a8e.pdb L_5a8e.pdb 1|5a8e|mol2|1|dock22
    51    52     1
SMALL
GASTEIGER


@<TRIPOS>ATOM
      1 C1         -26.3617  14.5691  19.1703 C.ar           1 <1>                0.1185
      2 N1         -26.1761  14.6214  20.5039 N.pl3          1 <1>               -0.3459
      3 O1         -23.1803  11.5837  18.4655 O.3            1 <1>               -0.4887
      4 C2         -25.5201  13.6922  18.5088 C.ar           1 <1>               -0.0151
      5 N2         -23.8808   7.7117  16.9122 N.3            1 <1>               -0.3088
      6 O2         -23.1699   8.9460  19.6075 O.3            1 <1>               -0.3872
      7 C3         -24.7156  13.1529  19.5580 C.ar           1 <1>                0.0428
      8 N3         -28.1474  15.8446  17.9668 N.1            1 <1>               -0.1893
      9 C4         -23.6053  12.1614  19.6332 C.ar           1 <1>                0.1298
     10 C5         -23.0236  11.8590  20.8776 C.ar           1 <1>               -0.0190
     11 C6         -23.4563  12.4553  22.0621 C.ar           1 <1>               -0.0534
     12 C7         -24.4891  13.3861  22.0786 C.ar           1 <1>               -0.0263
     13 C8         -25.1640  13.7789  20.8184 C.ar           1 <1>                0.0539
     14 C9         -22.0832  10.6728  18.3909 C.3            1 <1>                0.1166
     15 C10        -22.5893   9.2459  18.3356 C.3            1 <1>                0.1015
     16 C11        -23.5936   9.1056  17.1892 C.3            1 <1>                0.0256
     17 C12        -23.1792   6.9552  15.8811 C.3            1 <1>                0.0108
     18 C13        -21.6830   7.2486  15.9899 C.3            1 <1>               -0.0473
     19 C14        -23.6488   7.4303  14.5035 C.3            1 <1>               -0.0473
     20 C15        -23.4777   5.4651  16.0907 C.3            1 <1>               -0.0473
     21 C16        -27.3068  15.2746  18.5400 C.1            1 <1>                0.1171
     22 C17        -24.9474  14.0032  23.3606 C.3            1 <1>               -0.0377
     23 HN1        -26.7543  15.2239  21.0712 H              1 <1>                0.1665
     24 H2         -25.5981  13.5723  17.4386 H              1 <1>                0.0653
     25 HN2        -24.8698   7.7280  16.7044 H              1 <1>                0.1225
     26 HO2        -23.9868   8.4593  19.4802 H              1 <1>                0.2100
     27 H5         -22.2150  11.1450  20.9363 H              1 <1>                0.0654
     28 H6         -22.9862  12.1970  22.9999 H              1 <1>                0.0622
     29 H91        -21.4473  10.7986  19.2666 H              1 <1>                0.0723
     30 H92        -21.4960  10.8847  17.4977 H              1 <1>                0.0723
     31 H10        -21.7485   8.5745  18.1586 H              1 <1>                0.0640
     32 H111       -24.5170   9.6217  17.4510 H              1 <1>                0.0451
     33 H112       -23.1897   9.5781  16.2937 H              1 <1>                0.0451
     34 H131       -21.1455   6.6894  15.2242 H              1 <1>                0.0247
     35 H132       -21.5103   8.3151  15.8477 H              1 <1>                0.0247
     36 H133       -21.3244   6.9513  16.9749 H              1 <1>                0.0247
     37 H141       -23.1286   6.8682  13.7274 H              1 <1>                0.0247
     38 H142       -24.7229   7.2685  14.4093 H              1 <1>                0.0247
     39 H143       -23.4298   8.4921  14.3910 H              1 <1>                0.0247
     40 H151       -22.9619   4.8802  15.3285 H              1 <1>                0.0247
     41 H152       -23.1317   5.1599  17.0782 H              1 <1>                0.0247
     42 H153       -24.5518   5.2943  16.0135 H              1 <1>                0.0247
     43 H171       -25.7601  14.7014  23.1581 H              1 <1>                0.0278
     44 H172       -25.2985  13.2225  24.0348 H              1 <1>                0.0278
     45 H173       -24.1178  14.5365  23.8244 H              1 <1>                0.0278
     46 ****       -23.9703  11.0905  18.1012 LP             1 <1>                0.0000
     47 ****       -22.9491  12.3406  17.8543 LP             1 <1>                0.0000
     48 ****       -23.5502   7.2051  17.7085 LP             1 <1>                0.0000
     49 ****       -23.3620   9.7977  20.0951 LP             1 <1>                0.0000
     50 ****       -22.5320   8.3922  20.1426 LP             1 <1>                0.0000
     51 ****       -28.8682  16.3333  17.4754 LP             1 <1>                0.0000
@<TRIPOS>BOND
    1    1    2 ar    
    2    1    4 ar    
    3    1   21 1     
    4    2   13 ar    
    5    2   23 1     
    6    3   14 1     
    7    3    9 1     
    8    4    7 ar    
    9    4   24 1     
   10    5   17 1     
   11    5   16 1     
   12    5   25 1     
   13    6   15 1     
   14    6   26 1     
   15    7    9 ar    
   16    7   13 ar    
   17    8   21 3     
   18    9   10 ar    
   19   10   11 ar    
   20   10   27 1     
   21   11   12 ar    
   22   11   28 1     
   23   12   22 1     
   24   12   13 ar    
   25   14   15 1     
   26   14   29 1     
   27   14   30 1     
   28   15   16 1     
   29   15   31 1     
   30   16   32 1     
   31   16   33 1     
   32   17   18 1     
   33   17   19 1     
   34   17   20 1     
   35   18   34 1     
   36   18   35 1     
   37   18   36 1     
   38   19   37 1     
   39   19   38 1     
   40   19   39 1     
   41   20   40 1     
   42   20   41 1     
   43   20   42 1     
   44   22   43 1     
   45   22   44 1     
   46   22   45 1     
   47    3   46 1     
   48    3   47 1     
   49    5   48 1     
   50    6   49 1     
   51    6   50 1     
   52    8   51 1     
@<TRIPOS>SUBSTRUCTURE
      1 ****           1
@<TRIPOS>SET
LONE_PAIRS      STATIC     ATOMS    <user>   **** ""
6 46 47 48 49 50 51
DONOR_HYDROGENS      STATIC     ATOMS    <user>   **** ""
3 23 25 26
ATOM$BLUE        STATIC     ATOMS    COLORGROUP SYSTEM
6 46 47 48 49 50 51
ATOM$RED        STATIC     ATOMS    COLORGROUP SYSTEM
3 23 25 26
@<TRIPOS>COMMENT
> <Gold.Version>
5.5

> <Gold.Id.Protein>
unknown|bialko_beta1|pdb

> <Gold.Protein.ActiveResidues>
 ALA86   ASP87   VAL90   VAL94   VAL95   GLY98   ALA99   LEU101  VAL102  CYS114 
 GLU115  TRP117  THR118  SER119  LEU120  ASP121  VAL122  CYS124  VAL125  THR126 
 SER128  SER173  PHE174  ILE177  CYS199  ASP200  PHE201  TYR207  SER215  PHE299 
 TRP303  PHE306  PHE307  ASN310  PHE325  VAL326  ASN329  TRP330  GLY332  TYR333 
 SER336 

> <Gold.Score>
     Score     S(PLP)   S(hbond)     S(cho)   S(metal)  DE(clash)   DE(tors)     intcor
     62.86     -61.34       1.00       0.00       0.00       0.00       0.77       0.07

> <Gold.PLP.Fitness>
62.8593

> <Gold.PLP.PLP>
-61.3412

> <Gold.PLP.part.hbond>
-2.4978

> <Gold.PLP.part.metal>
0.0000

> <Gold.PLP.part.buried>
-9.0676

> <Gold.PLP.part.nonpolar>
-49.8737

> <Gold.PLP.part.repulsive>
0.1837

> <Gold.PLP.ligand.clash>
0.0000

> <Gold.PLP.ligand.torsion>
0.7740

> <Gold.PLP.Chemscore.Hbond>
1.0000

> <Gold.PLP.Chemscore.CHOScore>
0.0000

> <Gold.PLP.Chemscore.Metal>
0.0000

> <Gold.Chemscore.Hbonds>
donor molecule, donor type, donor heavy atom, donor atom, acceptor molecule, acceptor atom, score
      L1  H     6    26       P1  2066  1.00

> <Gold.PLP.Chemscore.Internal.Correction>
0.0662

