#       Name:                C:\Users\porto\OneDrive\projekt\beta1\ligandy\L_6h7n.pdb L_6h7n.pdb 1
#       Creating user name   mateusz
#       Creation time:       Wed Apr  3 10:39:55 2019


#       File generated by GOLD software.
#

@<TRIPOS>MOLECULE
C:\Users\porto\OneDrive\projekt\beta1\ligandy\L_6h7n.pdb L_6h7n.pdb 1|6h7n|mol2|1|dock607
    60    61     1
SMALL
GASTEIGER


@<TRIPOS>ATOM
      1 C1         -23.6748   2.8833  13.4712 C.3            1 <1>                0.0396
      2 N1         -23.7435   4.2880  13.8677 N.am           1 <1>               -0.2813
      3 O1         -23.0131   3.5219  11.2403 O.3            1 <1>               -0.3767
      4 C2         -22.6675   2.7207  12.3624 C.3            1 <1>                0.0635
      5 N2         -23.5883   5.9357  15.5029 N.am           1 <1>               -0.2980
      6 O2         -23.5987   3.7958  16.0702 O.2            1 <1>               -0.2526
      7 C3         -23.0261   4.8946  11.6145 C.3            1 <1>                0.0635
      8 N3         -24.3660   8.7170  17.2333 N.3            1 <1>               -0.3119
      9 O3         -24.0825  12.2247  19.8978 O.3            1 <1>               -0.4894
     10 C4         -23.9998   5.1732  12.7341 C.3            1 <1>                0.0396
     11 O4         -28.1629  15.7241  18.6590 O.3            1 <1>               -0.5068
     12 C5         -23.6222   4.6542  15.1903 C.2            1 <1>                0.3024
     13 O5         -23.8192   9.7372  19.8237 O.3            1 <1>               -0.3872
     14 C6         -23.5080   6.4054  16.8804 C.3            1 <1>                0.0256
     15 C7         -23.1892   7.8837  16.9746 C.3            1 <1>                0.0116
     16 C8         -24.0375  10.1287  17.4340 C.3            1 <1>                0.0252
     17 C9         -23.2159  10.3570  18.6962 C.3            1 <1>                0.1015
     18 C10        -23.0727  11.8414  18.9534 C.3            1 <1>                0.1166
     19 C11        -25.0708  13.1030  19.5266 C.ar           1 <1>                0.1209
     20 C12        -25.9976  13.4372  20.5052 C.ar           1 <1>               -0.0165
     21 C13        -27.0323  14.3173  20.2216 C.ar           1 <1>               -0.0167
     22 C14        -27.1530  14.8645  18.9544 C.ar           1 <1>                0.1171
     23 C15        -26.2323  14.5307  17.9785 C.ar           1 <1>               -0.0167
     24 C16        -25.1968  13.6558  18.2578 C.ar           1 <1>               -0.0165
     25 H11        -24.6542   2.5564  13.1231 H              1 <1>                0.0488
     26 H12        -23.3740   2.2793  14.3269 H              1 <1>                0.0488
     27 H21        -22.6252   1.6739  12.0612 H              1 <1>                0.0575
     28 H22        -21.6800   3.0085  12.7238 H              1 <1>                0.0575
     29 HN2        -23.6180   6.6344  14.7736 H              1 <1>                0.1503
     30 H31        -23.2850   5.5032  10.7484 H              1 <1>                0.0575
     31 H32        -22.0250   5.1958  11.9215 H              1 <1>                0.0575
     32 HN3        -24.8206   8.3554  18.0596 H              1 <1>                0.1221
     33 H41        -23.8984   6.2110  13.0530 H              1 <1>                0.0488
     34 H42        -25.0180   5.0194  12.3760 H              1 <1>                0.0488
     35 HO4        -28.6397  15.9464  19.4615 H              1 <1>                0.2921
     36 HO5        -24.3706   9.0074  19.5312 H              1 <1>                0.2100
     37 H61        -22.7467   5.8353  17.4134 H              1 <1>                0.0475
     38 H62        -24.4517   6.2057  17.3870 H              1 <1>                0.0475
     39 H71        -22.4514   8.0460  17.7607 H              1 <1>                0.0439
     40 H72        -22.7105   8.2099  16.0518 H              1 <1>                0.0439
     41 H81        -24.9575  10.7107  17.4899 H              1 <1>                0.0450
     42 H82        -23.4856  10.4986  16.5696 H              1 <1>                0.0450
     43 H9         -22.2241   9.9296  18.5510 H              1 <1>                0.0640
     44 H101       -22.0870  12.0435  19.3734 H              1 <1>                0.0723
     45 H102       -23.2211  12.3872  18.0213 H              1 <1>                0.0723
     46 H12        -25.9159  13.0119  21.4945 H              1 <1>                0.0655
     47 H13        -27.7456  14.5772  20.9895 H              1 <1>                0.0655
     48 H15        -26.3175  14.9541  16.9884 H              1 <1>                0.0655
     49 H16        -24.4848  13.4034  17.4858 H              1 <1>                0.0655
     50 ****       -23.9199   3.2588  10.9111 LP             1 <1>                0.0000
     51 ****       -22.3411   3.3823  10.5130 LP             1 <1>                0.0000
     52 ****       -23.6677   2.8283  15.8268 LP             1 <1>                0.0000
     53 ****       -23.5105   4.0650  17.0292 LP             1 <1>                0.0000
     54 ****       -24.9613   8.6778  16.4308 LP             1 <1>                0.0000
     55 ****       -23.6085  12.6356  20.6766 LP             1 <1>                0.0000
     56 ****       -24.5381  11.3841  20.1906 LP             1 <1>                0.0000
     57 ****       -28.7882  15.2925  18.0088 LP             1 <1>                0.0000
     58 ****       -27.7843  16.5567  18.2549 LP             1 <1>                0.0000
     59 ****       -24.3816  10.4057  20.3103 LP             1 <1>                0.0000
     60 ****       -23.1071   9.3925  20.4353 LP             1 <1>                0.0000
@<TRIPOS>BOND
    1    1    2 1     
    2    1    4 1     
    3    1   25 1     
    4    1   26 1     
    5    2   10 1     
    6    2   12 am    
    7    3    4 1     
    8    3    7 1     
    9    4   27 1     
   10    4   28 1     
   11    5   12 am    
   12    5   14 1     
   13    5   29 1     
   14    6   12 2     
   15    7   10 1     
   16    7   30 1     
   17    7   31 1     
   18    8   16 1     
   19    8   15 1     
   20    8   32 1     
   21    9   18 1     
   22    9   19 1     
   23   10   33 1     
   24   10   34 1     
   25   11   22 1     
   26   11   35 1     
   27   13   17 1     
   28   13   36 1     
   29   14   15 1     
   30   14   37 1     
   31   14   38 1     
   32   15   39 1     
   33   15   40 1     
   34   16   17 1     
   35   16   41 1     
   36   16   42 1     
   37   17   18 1     
   38   17   43 1     
   39   18   44 1     
   40   18   45 1     
   41   19   20 ar    
   42   19   24 ar    
   43   20   21 ar    
   44   20   46 1     
   45   21   22 ar    
   46   21   47 1     
   47   22   23 ar    
   48   23   24 ar    
   49   23   48 1     
   50   24   49 1     
   51    3   50 1     
   52    3   51 1     
   53    6   52 1     
   54    6   53 1     
   55    8   54 1     
   56    9   55 1     
   57    9   56 1     
   58   11   57 1     
   59   11   58 1     
   60   13   59 1     
   61   13   60 1     
@<TRIPOS>SUBSTRUCTURE
      1 ****           1
@<TRIPOS>SET
LONE_PAIRS      STATIC     ATOMS    <user>   **** ""
11 50 51 52 53 54 55 56 57 58 59 60
DONOR_HYDROGENS      STATIC     ATOMS    <user>   **** ""
4 29 32 35 36
ATOM$BLUE        STATIC     ATOMS    COLORGROUP SYSTEM
11 50 51 52 53 54 55 56 57 58 59 60
ATOM$RED        STATIC     ATOMS    COLORGROUP SYSTEM
4 29 32 35 36
@<TRIPOS>COMMENT
> <Gold.Version>
5.5

> <Gold.Id.Protein>
unknown|bialko_beta1|pdb

> <Gold.Protein.ActiveResidues>
 ALA86   ASP87   VAL90   VAL94   VAL95   GLY98   ALA99   LEU101  VAL102  CYS114 
 GLU115  TRP117  THR118  SER119  LEU120  ASP121  VAL122  CYS124  VAL125  THR126 
 SER128  SER173  PHE174  ILE177  CYS199  ASP200  PHE201  TYR207  SER215  PHE299 
 TRP303  PHE306  PHE307  ASN310  PHE325  VAL326  ASN329  TRP330  GLY332  TYR333 
 SER336 

> <Gold.Score>
     Score     S(PLP)   S(hbond)     S(cho)   S(metal)  DE(clash)   DE(tors)     intcor
     73.85     -70.25       2.00       0.00       0.00       0.00       1.28       0.15

> <Gold.PLP.Fitness>
73.8492

> <Gold.PLP.PLP>
-70.2542

> <Gold.PLP.part.hbond>
-2.0000

> <Gold.PLP.part.metal>
0.0000

> <Gold.PLP.part.buried>
-9.4782

> <Gold.PLP.part.nonpolar>
-60.4060

> <Gold.PLP.part.repulsive>
1.0197

> <Gold.PLP.ligand.clash>
0.0000

> <Gold.PLP.ligand.torsion>
1.2782

> <Gold.PLP.Chemscore.Hbond>
2.0000

> <Gold.PLP.Chemscore.CHOScore>
0.0000

> <Gold.PLP.Chemscore.Metal>
0.0000

> <Gold.Chemscore.Hbonds>
donor molecule, donor type, donor heavy atom, donor atom, acceptor molecule, acceptor atom, score
      L1  H     8    32       P1  2066  1.00
      L1  H    13    36       P1  2066  1.00

> <Gold.PLP.Chemscore.Internal.Correction>
0.1514

