#       Name:                C:\Users\porto\OneDrive\projekt\beta2\ligandy\L_4qkx.pdb L_4qkx.pdb 1
#       Creating user name   student
#       Creation time:       Mon Apr 01 15:24:13 2019


#       File generated by GOLD software.
#

@<TRIPOS>MOLECULE
C:\Users\porto\OneDrive\projekt\beta2\ligandy\L_4qkx.pdb L_4qkx.pdb 1|4qkx|mol2|1|dock3
    62    63     1
SMALL
GASTEIGER


@<TRIPOS>ATOM
      1 CAA        -30.5530   5.2651   8.9959 C.3            1 <1>                0.0790
      2 CAF        -27.7259  12.2581   5.4290 C.ar           1 <1>               -0.0162
      3 CAG        -34.0983   6.3738   5.7768 C.ar           1 <1>               -0.0548
      4 CAH        -29.0330  12.4043   5.8763 C.ar           1 <1>               -0.0524
      5 CAI        -34.6305   5.4639   6.6873 C.ar           1 <1>               -0.0160
      6 CAJ        -28.9494  10.2721   7.0078 C.ar           1 <1>               -0.0109
      7 CAK        -32.1030   6.5297   7.1230 C.ar           1 <1>               -0.0131
      8 CAL        -35.2242   1.9751   8.9827 C.3            1 <1>                0.0249
      9 CAM        -31.3170   8.7328   5.9610 C.3            1 <1>               -0.0000
     10 CAN        -35.2342   3.2668   8.1553 C.3            1 <1>                0.0985
     11 CAO        -32.2121   7.8081   5.1225 C.3            1 <1>               -0.0150
     12 CAP        -31.5224  10.4707   7.9220 C.3            1 <1>                0.0261
     13 CAT        -27.0389  11.1072   5.7793 C.ar           1 <1>                0.1582
     14 CAU        -27.6420  10.1257   6.5585 C.ar           1 <1>                0.1586
     15 CAV        -32.8316   6.9151   6.0016 C.ar           1 <1>               -0.0425
     16 CAW        -29.6434  11.4183   6.6458 C.ar           1 <1>               -0.0143
     17 CAX        -33.8966   5.0966   7.8064 C.ar           1 <1>                0.1619
     18 CAY        -32.6293   5.6219   8.0207 C.ar           1 <1>                0.1618
     19 CAZ        -30.9495  11.6198   7.0767 C.3            1 <1>                0.0927
     20 NAQ        -32.0655   9.6130   6.8694 N.3            1 <1>               -0.3129
     21 OAB        -25.7570  10.8860   5.3838 O.3            1 <1>               -0.5033
     22 OAC        -26.8933   9.0283   6.8534 O.3            1 <1>               -0.5033
     23 OAD        -31.8462  11.9121   5.9932 O.3            1 <1>               -0.3859
     24 OAR        -31.9777   5.2321   9.1483 O.3            1 <1>               -0.4914
     25 OAS        -34.3479   4.2216   8.7458 O.3            1 <1>               -0.4875
     26 SAE        -35.7579   2.2647  10.7063 S.3            1 <1>               -0.1749
     27 HAA1       -30.0801   4.9453   9.9242 H              1 <1>                0.0660
     28 HAA2       -30.2574   4.5946   8.1890 H              1 <1>                0.0660
     29 HAA3       -30.2359   6.2804   8.7585 H              1 <1>                0.0660
     30 HAF        -27.2719  13.0302   4.8247 H              1 <1>                0.0655
     31 HAG        -34.6652   6.6575   4.9029 H              1 <1>                0.0621
     32 HAH        -29.5920  13.2941   5.6277 H              1 <1>                0.0622
     33 HAI        -35.6122   5.0453   6.5219 H              1 <1>                0.0655
     34 HAJ        -29.3979   9.5054   7.6213 H              1 <1>                0.0659
     35 HAK        -31.1201   6.9452   7.2887 H              1 <1>                0.0658
     36 HAL1       -35.8826   1.2409   8.5177 H              1 <1>                0.0407
     37 HAL2       -34.2203   1.5511   8.9801 H              1 <1>                0.0407
     38 HAM1       -30.7000   9.3391   5.2967 H              1 <1>                0.0427
     39 HAM2       -30.6150   8.1309   6.5376 H              1 <1>                0.0427
     40 HAN1       -36.2443   3.6748   8.1316 H              1 <1>                0.0705
     41 HAN2       -34.9084   3.0497   7.1384 H              1 <1>                0.0705
     42 HAO1       -31.5969   7.2526   4.4147 H              1 <1>                0.0325
     43 HAO2       -32.9716   8.4014   4.6138 H              1 <1>                0.0325
     44 HAP1       -30.7029   9.9510   8.4177 H              1 <1>                0.0453
     45 HAP2       -32.3428  10.8507   8.5302 H              1 <1>                0.0453
     46 HAZ        -30.9350  12.5012   7.7171 H              1 <1>                0.0656
     47 HNAQ       -32.5741  10.2997   6.3309 H              1 <1>                0.1220
     48 HOAB       -25.1533  11.2820   6.0167 H              1 <1>                0.2923
     49 HOAC       -27.1861   8.6553   7.6881 H              1 <1>                0.2923
     50 HOAD       -32.7352  11.6404   6.2307 H              1 <1>                0.2103
     51 HSAE       -35.6270   3.5610  11.0017 H              1 <1>                0.1017
     52 ****       -32.4942   8.8542   7.3597 LP             1 <1>                0.0000
     53 ****       -25.6109  11.2950   4.4831 LP             1 <1>                0.0000
     54 ****       -25.5888   9.9015   5.3341 LP             1 <1>                0.0000
     55 ****       -25.9311   9.2909   6.9252 LP             1 <1>                0.0000
     56 ****       -26.9998   8.3476   6.1286 LP             1 <1>                0.0000
     57 ****       -31.5536  11.4164   5.1755 LP             1 <1>                0.0000
     58 ****       -31.8364  12.8949   5.8086 LP             1 <1>                0.0000
     59 ****       -32.2348   5.8448   9.8957 LP             1 <1>                0.0000
     60 ****       -32.2550   4.2979   9.3727 LP             1 <1>                0.0000
     61 ****       -33.5692   3.7418   9.1500 LP             1 <1>                0.0000
     62 ****       -34.8351   4.7261   9.4586 LP             1 <1>                0.0000
@<TRIPOS>BOND
    1    1   24 1     
    2    1   27 1     
    3    1   28 1     
    4    1   29 1     
    5    2    4 ar    
    6    2   13 ar    
    7    2   30 1     
    8    3    5 ar    
    9    3   15 ar    
   10    3   31 1     
   11    4   16 ar    
   12    4   32 1     
   13    5   17 ar    
   14    5   33 1     
   15    6   14 ar    
   16    6   16 ar    
   17    6   34 1     
   18    7   18 ar    
   19    7   15 ar    
   20    7   35 1     
   21    8   26 1     
   22    8   10 1     
   23    8   36 1     
   24    8   37 1     
   25    9   11 1     
   26    9   20 1     
   27    9   38 1     
   28    9   39 1     
   29   10   25 1     
   30   10   40 1     
   31   10   41 1     
   32   11   15 1     
   33   11   42 1     
   34   11   43 1     
   35   12   20 1     
   36   12   19 1     
   37   12   44 1     
   38   12   45 1     
   39   13   21 1     
   40   13   14 ar    
   41   14   22 1     
   42   16   19 1     
   43   17   25 1     
   44   17   18 ar    
   45   18   24 1     
   46   19   23 1     
   47   19   46 1     
   48   20   47 1     
   49   21   48 1     
   50   22   49 1     
   51   23   50 1     
   52   26   51 1     
   53   20   52 1     
   54   21   53 1     
   55   21   54 1     
   56   22   55 1     
   57   22   56 1     
   58   23   57 1     
   59   23   58 1     
   60   24   59 1     
   61   24   60 1     
   62   25   61 1     
   63   25   62 1     
@<TRIPOS>SUBSTRUCTURE
      1 ****           1
@<TRIPOS>SET
LONE_PAIRS      STATIC     ATOMS    <user>   **** ""
11 52 53 54 55 56 57 58 59 60 61 62
DONOR_HYDROGENS      STATIC     ATOMS    <user>   **** ""
4 47 48 49 50
ATOM$BLUE        STATIC     ATOMS    COLORGROUP SYSTEM
11 52 53 54 55 56 57 58 59 60 61 62
ATOM$RED        STATIC     ATOMS    COLORGROUP SYSTEM
4 47 48 49 50
@<TRIPOS>COMMENT
> <Gold.Version>
5.5

> <Gold.Id.Protein>
unknown|dok_beta2|pdb

> <Gold.Protein.RotatedTorsions>
[ 4175 4166 4165 4163 ] final   57.87 input -179.98 | X-H torsion
[ 1294 1290 1288 1285 ] final -122.40 input -179.99 | X-H torsion
[ 4033 4024 4023 4021 ] final  -71.00 input  179.98 | X-H torsion
[ 1412 1408 1406 1403 ] final  160.69 input -179.99 | X-H torsion
[ 2830 2825 2824 2821 ] final  157.01 input -179.98 | X-H torsion
[ 2723 2714 2713 2711 ] final -102.50 input -179.98 | X-H torsion
[ 2773 2768 2767 2764 ] final  -87.59 input  180.00 | X-H torsion

> <Gold.Protein.ActiveResidues>
 TRP109  THR110  ASP113  VAL114  VAL117  THR118  PHE193  TYR199  SER203  SER207 
 PHE208  TRP286  PHE289  PHE290  ASN293  TYR308  ASN312  TYR316 

> <Gold.Protein.RotatedAtoms>
  -33.9726    4.0165    2.4080 H   0  0  0  0  0  0  0  0  0  0  0  0  # atno 1294 bound_to 1290
  -27.4598   14.5529    1.6921 H   0  0  0  0  0  0  0  0  0  0  0  0  # atno 1412 bound_to 1408
  -26.1549    8.3044    2.6195 H   0  0  0  0  0  0  0  0  0  0  0  0  # atno 2723 bound_to 2714
  -24.4245   10.2745    3.9056 H   0  0  0  0  0  0  0  0  0  0  0  0  # atno 2773 bound_to 2768
  -24.6420   12.7841    2.9907 H   0  0  0  0  0  0  0  0  0  0  0  0  # atno 2830 bound_to 2825
  -28.2199    5.3797   10.9606 H   0  0  0  0  0  0  0  0  0  0  0  0  # atno 4033 bound_to 4024
  -37.7524    8.7174    7.4695 H   0  0  0  0  0  0  0  0  0  0  0  0  # atno 4175 bound_to 4166
  -36.6875    8.3560    8.6081 LP  0  0  0  0  0  0  0  0  0  0  0  0  # atno 4597 bound_to 4166
  -36.2757    9.3241    7.3591 LP  0  0  0  0  0  0  0  0  0  0  0  0  # atno 4598 bound_to 4166
  -34.6839    3.7073    1.0081 LP  0  0  0  0  0  0  0  0  0  0  0  0  # atno 4603 bound_to 1290
  -35.3517    4.7542    2.0686 LP  0  0  0  0  0  0  0  0  0  0  0  0  # atno 4604 bound_to 1290
  -28.0958    6.8557   11.5673 LP  0  0  0  0  0  0  0  0  0  0  0  0  # atno 4607 bound_to 4024
  -29.4179    6.4130   10.7172 LP  0  0  0  0  0  0  0  0  0  0  0  0  # atno 4608 bound_to 4024
  -28.2534   14.8806    3.0427 LP  0  0  0  0  0  0  0  0  0  0  0  0  # atno 4611 bound_to 1408
  -26.6466   15.1509    2.9340 LP  0  0  0  0  0  0  0  0  0  0  0  0  # atno 4612 bound_to 1408
  -23.2521   13.5030    2.6566 LP  0  0  0  0  0  0  0  0  0  0  0  0  # atno 4613 bound_to 2825
  -24.6476   14.0424    2.0023 LP  0  0  0  0  0  0  0  0  0  0  0  0  # atno 4614 bound_to 2825

> <Gold.Score>
     Score     S(PLP)   S(hbond)     S(cho)   S(metal)  DE(clash)   DE(tors)     intcor
     78.92     -77.46       2.80       0.00       0.00       8.31       1.66       4.71

> <Gold.PLP.Fitness>
78.9248

> <Gold.PLP.PLP>
-77.4591

> <Gold.PLP.part.hbond>
-3.8468

> <Gold.PLP.part.metal>
0.0000

> <Gold.PLP.part.buried>
-6.9797

> <Gold.PLP.part.nonpolar>
-68.5255

> <Gold.PLP.part.repulsive>
0.0945

> <Gold.PLP.ligand.clash>
8.3061

> <Gold.PLP.ligand.torsion>
1.6640

> <Gold.PLP.Chemscore.Hbond>
2.7963

> <Gold.PLP.Chemscore.CHOScore>
0.0000

> <Gold.PLP.Chemscore.Metal>
0.0000

> <Gold.Chemscore.Hbonds>
donor molecule, donor type, donor heavy atom, donor atom, acceptor molecule, acceptor atom, score
      L1  H    20    47       P1  1334  0.80
      L1  H    23    50       P1  1334  1.00
      P1  H  2768  2773       L1    21  1.00

> <Gold.PLP.Chemscore.Internal.Correction>
4.7111

