#       Name:                C:\Users\porto\OneDrive\projekt\beta1\ligandy\L_6h7j.pdb L_6h7j.pdb 1
#       Creating user name   student
#       Creation time:       Mon Apr 08 16:17:24 2019


#       File generated by GOLD software.
#

@<TRIPOS>MOLECULE
C:\Users\porto\OneDrive\projekt\beta1\ligandy\L_6h7j.pdb L_6h7j.pdb 1|6h7j|mol2|1|dock1
    39    39     1
SMALL
GASTEIGER


@<TRIPOS>ATOM
      1 CAE        -24.0092   5.9672  16.7262 C.3            1 <1>                0.0927
      2 CAF        -23.0059   7.1157  16.8893 C.3            1 <1>                0.0263
      3 CAG        -22.3734   8.9419  18.4102 C.3            1 <1>                0.0021
      4 CAH        -23.7390   5.2127  15.4174 C.ar           1 <1>               -0.0143
      5 CAI        -20.9861   8.9018  17.7532 C.3            1 <1>               -0.0499
      6 CAJ        -23.2276  10.0677  17.8032 C.3            1 <1>               -0.0499
      7 CAK        -23.8275   5.8975  14.2037 C.ar           1 <1>               -0.0109
      8 CAL        -23.4130   3.8534  15.4139 C.ar           1 <1>               -0.0524
      9 CAM        -23.5767   5.2435  12.9982 C.ar           1 <1>                0.1586
     10 CAN        -23.1751   3.1907  14.2114 C.ar           1 <1>               -0.0162
     11 CAO        -23.2566   3.8866  13.0076 C.ar           1 <1>                0.1582
     12 NAD        -22.9960   7.6039  18.2867 N.3            1 <1>               -0.3110
     13 OAA        -23.8958   5.1054  17.8545 O.3            1 <1>               -0.3859
     14 OAB        -23.6564   5.9215  11.8206 O.3            1 <1>               -0.5033
     15 OAC        -23.0247   3.2373  11.8461 O.3            1 <1>               -0.5033
     16 HAE        -25.0181   6.3799  16.6954 H              1 <1>                0.0656
     17 HAF1       -23.2776   7.9328  16.2215 H              1 <1>                0.0453
     18 HAF2       -22.0088   6.7674  16.6195 H              1 <1>                0.0453
     19 HAG        -22.2386   9.1545  19.4705 H              1 <1>                0.0455
     20 HAI1       -20.3967   8.0984  18.1957 H              1 <1>                0.0245
     21 HAI2       -21.0948   8.7241  16.6834 H              1 <1>                0.0245
     22 HAI3       -20.4806   9.8540  17.9131 H              1 <1>                0.0245
     23 HAJ1       -22.7146  11.0211  17.9273 H              1 <1>                0.0245
     24 HAJ2       -23.3832   9.8740  16.7420 H              1 <1>                0.0245
     25 HAJ3       -24.1917  10.1064  18.3101 H              1 <1>                0.0245
     26 HAK        -24.0922   6.9439  14.1927 H              1 <1>                0.0659
     27 HAL        -23.3446   3.3116  16.3460 H              1 <1>                0.0622
     28 HAN        -22.9273   2.1394  14.2135 H              1 <1>                0.0655
     29 HNAD       -23.9447   7.6674  18.6278 H              1 <1>                0.1223
     30 HOAA       -23.2033   5.4273  18.4356 H              1 <1>                0.2103
     31 HOAB       -24.3140   5.5077  11.2571 H              1 <1>                0.2923
     32 HOAC       -23.0597   2.2900  11.9959 H              1 <1>                0.2923
     33 ****       -22.4583   6.9523  18.8218 LP             1 <1>                0.0000
     34 ****       -23.6693   4.1814  17.5465 LP             1 <1>                0.0000
     35 ****       -24.7646   5.0882  18.3493 LP             1 <1>                0.0000
     36 ****       -22.7669   5.9025  11.3641 LP             1 <1>                0.0000
     37 ****       -23.9194   6.8697  11.9989 LP             1 <1>                0.0000
     38 ****       -22.1203   3.4867  11.4998 LP             1 <1>                0.0000
     39 ****       -23.7208   3.4946  11.1759 LP             1 <1>                0.0000
@<TRIPOS>BOND
    1    1    4 1     
    2    1   13 1     
    3    1    2 1     
    4    1   16 1     
    5    2   12 1     
    6    2   17 1     
    7    2   18 1     
    8    3    6 1     
    9    3   12 1     
   10    3    5 1     
   11    3   19 1     
   12    4    7 ar    
   13    4    8 ar    
   14    5   20 1     
   15    5   21 1     
   16    5   22 1     
   17    6   23 1     
   18    6   24 1     
   19    6   25 1     
   20    7    9 ar    
   21    7   26 1     
   22    8   10 ar    
   23    8   27 1     
   24    9   14 1     
   25    9   11 ar    
   26   10   11 ar    
   27   10   28 1     
   28   11   15 1     
   29   12   29 1     
   30   13   30 1     
   31   14   31 1     
   32   15   32 1     
   33   12   33 1     
   34   13   34 1     
   35   13   35 1     
   36   14   36 1     
   37   14   37 1     
   38   15   38 1     
   39   15   39 1     
@<TRIPOS>SUBSTRUCTURE
      1 ****           1
@<TRIPOS>SET
LONE_PAIRS      STATIC     ATOMS    <user>   **** ""
7 33 34 35 36 37 38 39
DONOR_HYDROGENS      STATIC     ATOMS    <user>   **** ""
4 29 30 31 32
ATOM$BLUE        STATIC     ATOMS    COLORGROUP SYSTEM
7 33 34 35 36 37 38 39
ATOM$RED        STATIC     ATOMS    COLORGROUP SYSTEM
4 29 30 31 32
@<TRIPOS>COMMENT
> <Gold.Version>
5.5

> <Gold.Id.Protein>
unknown|bialko_beta1|pdb

> <Gold.Protein.ActiveResidues>
 ALA86   ASP87   VAL90   VAL94   VAL95   GLY98   ALA99   LEU101  VAL102  CYS114 
 GLU115  TRP117  THR118  SER119  LEU120  ASP121  VAL122  CYS124  VAL125  THR126 
 SER128  SER173  PHE174  ILE177  CYS199  ASP200  PHE201  TYR207  SER215  PHE299 
 TRP303  PHE306  PHE307  ASN310  PHE325  VAL326  ASN329  TRP330  GLY332  TYR333 
 SER336 

> <Gold.Score>
     Score     S(PLP)   S(hbond)     S(cho)   S(metal)  DE(clash)   DE(tors)     intcor
     52.14     -49.60       1.00       0.00       0.00       0.00       0.25       0.04

> <Gold.PLP.Fitness>
52.1357

> <Gold.PLP.PLP>
-49.5958

> <Gold.PLP.part.hbond>
-4.9050

> <Gold.PLP.part.metal>
0.0000

> <Gold.PLP.part.buried>
-4.8877

> <Gold.PLP.part.nonpolar>
-39.6235

> <Gold.PLP.part.repulsive>
0.0000

> <Gold.PLP.ligand.clash>
0.0000

> <Gold.PLP.ligand.torsion>
0.2517

> <Gold.PLP.Chemscore.Hbond>
1.0000

> <Gold.PLP.Chemscore.CHOScore>
0.0000

> <Gold.PLP.Chemscore.Metal>
0.0000

> <Gold.Chemscore.Hbonds>
donor molecule, donor type, donor heavy atom, donor atom, acceptor molecule, acceptor atom, score
      L1  H    12    29       P1  2066  1.00

> <Gold.PLP.Chemscore.Internal.Correction>
0.0434

