#       Name:                C:\Users\porto\OneDrive\projekt\beta2\ligandy\L_4ldo.pdb L_4ldo.pdb 1
#       Creating user name   student
#       Creation time:       Mon Apr 01 15:51:03 2019


#       File generated by GOLD software.
#

@<TRIPOS>MOLECULE
C:\Users\porto\OneDrive\projekt\beta2\ligandy\L_4ldo.pdb L_4ldo.pdb 1|4ldo|mol2|1|dock5
    33    33     1
SMALL
GASTEIGER


@<TRIPOS>ATOM
      1 C1         -29.1773   9.9179   7.3818 C.ar           1 <1>               -0.0143
      2 N1         -26.3874   9.3748   5.1538 N.3            1 <1>               -0.3162
      3 O1         -32.4134   8.2640   7.8528 O.3            1 <1>               -0.5033
      4 C2         -30.1125   8.8927   7.4902 C.ar           1 <1>               -0.0109
      5 O2         -33.1599  10.7586   8.1011 O.3            1 <1>               -0.5033
      6 C3         -31.4440   9.2110   7.7331 C.ar           1 <1>                0.1586
      7 O3         -27.3691   8.6637   8.1036 O.3            1 <1>               -0.3859
      8 C4         -31.8389  10.5338   7.8644 C.ar           1 <1>                0.1582
      9 C5         -30.9114  11.5625   7.7560 C.ar           1 <1>               -0.0162
     10 C6         -29.5773  11.2455   7.5143 C.ar           1 <1>               -0.0524
     11 C7         -27.8423   9.6076   7.1387 C.3            1 <1>                0.0927
     12 C8         -27.6926   9.0247   5.7319 C.3            1 <1>                0.0258
     13 C9         -25.3183   8.7118   5.9125 C.3            1 <1>               -0.0157
     14 HN1        -26.3530   9.0713   4.1914 H              1 <1>                0.1217
     15 HO1        -32.8886   8.3946   8.6763 H              1 <1>                0.2923
     16 H2         -29.8004   7.8641   7.3859 H              1 <1>                0.0659
     17 HO2        -33.5760  11.0947   7.3040 H              1 <1>                0.2923
     18 HO3        -27.7504   7.8009   7.9222 H              1 <1>                0.2103
     19 H5         -31.2294  12.5899   7.8594 H              1 <1>                0.0655
     20 H6         -28.8507  12.0396   7.4299 H              1 <1>                0.0622
     21 H7         -27.2477  10.5176   7.2113 H              1 <1>                0.0656
     22 H81        -27.7903   7.9404   5.7762 H              1 <1>                0.0453
     23 H82        -28.4876   9.4100   5.0936 H              1 <1>                0.0453
     24 H91        -24.3510   8.9725   5.4824 H              1 <1>                0.0388
     25 H92        -25.3533   9.0392   6.9517 H              1 <1>                0.0388
     26 H93        -25.4559   7.6313   5.8669 H              1 <1>                0.0388
     27 ****       -26.2612  10.3659   5.1972 LP             1 <1>                0.0000
     28 ****       -31.9944   7.3560   7.8501 LP             1 <1>                0.0000
     29 ****       -33.0498   8.3396   7.0851 LP             1 <1>                0.0000
     30 ****       -33.2572  11.4297   8.8361 LP             1 <1>                0.0000
     31 ****       -33.6004   9.9024   8.3712 LP             1 <1>                0.0000
     32 ****       -27.6378   8.9608   9.0199 LP             1 <1>                0.0000
     33 ****       -26.3722   8.6050   8.0512 LP             1 <1>                0.0000
@<TRIPOS>BOND
    1    1    4 ar    
    2    1   10 ar    
    3    1   11 1     
    4    2   12 1     
    5    2   13 1     
    6    2   14 1     
    7    3    6 1     
    8    3   15 1     
    9    4    6 ar    
   10    4   16 1     
   11    5    8 1     
   12    5   17 1     
   13    6    8 ar    
   14    7   11 1     
   15    7   18 1     
   16    8    9 ar    
   17    9   10 ar    
   18    9   19 1     
   19   10   20 1     
   20   11   12 1     
   21   11   21 1     
   22   12   22 1     
   23   12   23 1     
   24   13   24 1     
   25   13   25 1     
   26   13   26 1     
   27    2   27 1     
   28    3   28 1     
   29    3   29 1     
   30    5   30 1     
   31    5   31 1     
   32    7   32 1     
   33    7   33 1     
@<TRIPOS>SUBSTRUCTURE
      1 ****           1
@<TRIPOS>SET
LONE_PAIRS      STATIC     ATOMS    <user>   **** ""
7 27 28 29 30 31 32 33
DONOR_HYDROGENS      STATIC     ATOMS    <user>   **** ""
4 14 15 17 18
ATOM$BLUE        STATIC     ATOMS    COLORGROUP SYSTEM
7 27 28 29 30 31 32 33
ATOM$RED        STATIC     ATOMS    COLORGROUP SYSTEM
4 14 15 17 18
@<TRIPOS>COMMENT
> <Gold.Version>
5.5

> <Gold.Id.Protein>
unknown|dok_beta2|pdb

> <Gold.Protein.RotatedTorsions>
[ 4175 4166 4165 4163 ] final  -56.57 input -179.98 | X-H torsion
[ 1294 1290 1288 1285 ] final  142.86 input -179.99 | X-H torsion
[ 4033 4024 4023 4021 ] final   77.16 input  179.98 | X-H torsion
[ 1412 1408 1406 1403 ] final   89.56 input -179.99 | X-H torsion
[ 2830 2825 2824 2821 ] final  -37.86 input -179.98 | X-H torsion
[ 2723 2714 2713 2711 ] final   47.16 input -179.98 | X-H torsion
[ 2773 2768 2767 2764 ] final  -59.63 input  180.00 | X-H torsion

> <Gold.Protein.ActiveResidues>
 TRP109  THR110  ASP113  VAL114  VAL117  THR118  PHE193  TYR199  SER203  SER207 
 PHE208  TRP286  PHE289  PHE290  ASN293  TYR308  ASN312  TYR316 

> <Gold.Protein.RotatedAtoms>
  -34.3431    3.5976    1.1996 H   0  0  0  0  0  0  0  0  0  0  0  0  # atno 1294 bound_to 1290
  -28.2990   14.6223    2.3238 H   0  0  0  0  0  0  0  0  0  0  0  0  # atno 1412 bound_to 1408
  -26.5627    7.3803    1.1945 H   0  0  0  0  0  0  0  0  0  0  0  0  # atno 2723 bound_to 2714
  -24.1710   10.6209    3.8225 H   0  0  0  0  0  0  0  0  0  0  0  0  # atno 2773 bound_to 2768
  -23.9478   14.1488    2.0560 H   0  0  0  0  0  0  0  0  0  0  0  0  # atno 2830 bound_to 2825
  -29.2664    6.7711   10.9461 H   0  0  0  0  0  0  0  0  0  0  0  0  # atno 4033 bound_to 4024
  -36.7826    8.3523    8.5833 H   0  0  0  0  0  0  0  0  0  0  0  0  # atno 4175 bound_to 4166
  -36.2175    9.3022    7.4259 LP  0  0  0  0  0  0  0  0  0  0  0  0  # atno 4597 bound_to 4166
  -37.7567    8.7585    7.3803 LP  0  0  0  0  0  0  0  0  0  0  0  0  # atno 4598 bound_to 4166
  -35.4664    4.6245    1.6946 LP  0  0  0  0  0  0  0  0  0  0  0  0  # atno 4603 bound_to 1290
  -34.1831    4.2735    2.6414 LP  0  0  0  0  0  0  0  0  0  0  0  0  # atno 4604 bound_to 1290
  -28.6037    5.3304   10.7284 LP  0  0  0  0  0  0  0  0  0  0  0  0  # atno 4607 bound_to 4024
  -27.8200    6.4890   11.5711 LP  0  0  0  0  0  0  0  0  0  0  0  0  # atno 4608 bound_to 4024
  -27.2683   15.2024    3.4020 LP  0  0  0  0  0  0  0  0  0  0  0  0  # atno 4611 bound_to 1408
  -26.7572   14.7568    1.9164 LP  0  0  0  0  0  0  0  0  0  0  0  0  # atno 4612 bound_to 1408
  -25.0912   13.1703    2.5996 LP  0  0  0  0  0  0  0  0  0  0  0  0  # atno 4613 bound_to 2825
  -23.5322   12.9523    3.0338 LP  0  0  0  0  0  0  0  0  0  0  0  0  # atno 4614 bound_to 2825

> <Gold.Score>
     Score     S(PLP)   S(hbond)     S(cho)   S(metal)  DE(clash)   DE(tors)     intcor
     50.21     -40.78       3.48       0.00       0.00       0.00       0.51       0.00

> <Gold.PLP.Fitness>
50.2051

> <Gold.PLP.PLP>
-40.7825

> <Gold.PLP.part.hbond>
-4.5227

> <Gold.PLP.part.metal>
0.0000

> <Gold.PLP.part.buried>
-5.8464

> <Gold.PLP.part.nonpolar>
-31.6090

> <Gold.PLP.part.repulsive>
0.0000

> <Gold.PLP.ligand.clash>
0.0000

> <Gold.PLP.ligand.torsion>
0.5106

> <Gold.PLP.Chemscore.Hbond>
3.4800

> <Gold.PLP.Chemscore.CHOScore>
0.0000

> <Gold.PLP.Chemscore.Metal>
0.0000

> <Gold.Chemscore.Hbonds>
donor molecule, donor type, donor heavy atom, donor atom, acceptor molecule, acceptor atom, score
      L1  H     3    15       P1  4098  1.00
      L1  H     5    17       P1  1334  1.00
      P1  H  4097  4104       L1     5  1.00
      P1  H  3760  3767       L1     7  0.48

> <Gold.PLP.Chemscore.Internal.Correction>
0.0038

