#       Name:                plp ligand
#       Creating user name   student
#       Creation time:       Mon Apr 01 15:50:51 2019


#       File generated by GOLD software.
#

@<TRIPOS>MOLECULE
plp ligand
    33    33     1
SMALL
GASTEIGER


@<TRIPOS>ATOM
      1 C1           0.2890   0.6909   0.3111 NONPOLAR       1 <1>               -0.0143
      2 N1          -2.4980  -1.6621   0.8411 DONACC         1 <1>               -0.3162
      3 O1           3.8380  -0.0701  -0.1939 DONACC         1 <1>               -0.5033
      4 C2           1.5000   0.0099   0.3961 NONPOLAR       1 <1>               -0.0109
      5 O2           3.6830   2.1799  -1.5189 DONACC         1 <1>               -0.5033
      6 C3           2.6220   0.5389  -0.2319 NONPOLAR       1 <1>                0.1586
      7 O3          -1.8900   1.1379   0.9561 DONACC         1 <1>               -0.3859
      8 C4           2.5390   1.7319  -0.9339 NONPOLAR       1 <1>                0.1582
      9 C5           1.3340   2.4179  -1.0219 NONPOLAR       1 <1>               -0.0162
     10 C6           0.2090   1.8889  -0.3949 NONPOLAR       1 <1>               -0.0524
     11 C7          -0.8390   0.1679   0.9371 NONPOLAR       1 <1>                0.0927
     12 C8          -1.3090  -1.0861   0.1971 NONPOLAR       1 <1>                0.0258
     13 C9          -2.9200  -2.8651   0.1111 NONPOLAR       1 <1>               -0.0157
     14 HN1         -2.2780  -1.9091   1.7951 0ÿ             1 <1>                0.1217
     15 HO1          4.4740   0.4539  -0.6859 0ÿ             1 <1>                0.2923
     16 H2           1.5600  -0.9181   0.9451 0ÿ             1 <1>                0.0659
     17 HO2          3.5080   3.0069  -1.9739 0ÿ             1 <1>                0.2923
     18 HO3         -2.6620   0.7659   1.3901 0ÿ             1 <1>                0.2103
     19 H5           1.2800   3.3469  -1.5709 0ÿ             1 <1>                0.0655
     20 H6          -0.7310   2.4159  -0.4599 0ÿ             1 <1>                0.0622
     21 H7          -0.5840  -0.0991   1.9621 0ÿ             1 <1>                0.0656
     22 H81         -1.5440  -0.8311  -0.8359 0ÿ             1 <1>                0.0453
     23 H82         -0.5070  -1.8241   0.1891 0ÿ             1 <1>                0.0453
     24 H91         -3.8020  -3.2911   0.5901 0ÿ             1 <1>                0.0388
     25 H92         -3.1590  -2.6001  -0.9189 0ÿ             1 <1>                0.0388
     26 H93         -2.1130  -3.5981   0.1201 0ÿ             1 <1>                0.0388
     27 ****        -3.2383  -0.9898   0.8313 0ÿ             1 <1>                0.0000
     28 ****         3.7680  -0.9798  -0.6031 0ÿ             1 <1>                0.0000
     29 ****         4.1391  -0.1541   0.7560 0ÿ             1 <1>                0.0000
     30 ****         4.0092   1.5006  -2.1763 0ÿ             1 <1>                0.0000
     31 ****         4.3805   2.3267  -0.8175 0ÿ             1 <1>                0.0000
     32 ****        -2.1254   1.3926   0.0181 0ÿ             1 <1>                0.0000
     33 ****        -1.5857   1.9492   1.4553 0ÿ             1 <1>                0.0000
@<TRIPOS>BOND
    1    1    4 ar    
    2    1   10 ar    
    3    1   11 1     
    4    2   12 1     
    5    2   13 1     
    6    2   14 1     
    7    3    6 1     
    8    3   15 1     
    9    4    6 ar    
   10    4   16 1     
   11    5    8 1     
   12    5   17 1     
   13    6    8 ar    
   14    7   11 1     
   15    7   18 1     
   16    8    9 ar    
   17    9   10 ar    
   18    9   19 1     
   19   10   20 1     
   20   11   12 1     
   21   11   21 1     
   22   12   22 1     
   23   12   23 1     
   24   13   24 1     
   25   13   25 1     
   26   13   26 1     
   27    2   27 1     
   28    3   28 1     
   29    3   29 1     
   30    5   30 1     
   31    5   31 1     
   32    7   32 1     
   33    7   33 1     
@<TRIPOS>SUBSTRUCTURE
      1 ****           1
@<TRIPOS>SET
LONE_PAIRS      STATIC     ATOMS    <user>   **** ""
7 27 28 29 30 31 32 33
DONOR_HYDROGENS      STATIC     ATOMS    <user>   **** ""
4 14 15 17 18
ATOM$BLUE        STATIC     ATOMS    COLORGROUP SYSTEM
7 27 28 29 30 31 32 33
ATOM$RED        STATIC     ATOMS    COLORGROUP SYSTEM
4 14 15 17 18
