#       Name:                C:\Users\porto\OneDrive\projekt\beta1\ligandy\L_3zpq.pdb L_3zpq.pdb 1
#       Creating user name   student
#       Creation time:       Mon Apr 08 15:57:31 2019


#       File generated by GOLD software.
#

@<TRIPOS>MOLECULE
C:\Users\porto\OneDrive\projekt\beta1\ligandy\L_3zpq.pdb L_3zpq.pdb 1|3zpq|mol2|1|dock1
    31    33     1
SMALL
GASTEIGER


@<TRIPOS>ATOM
      1 C1         -22.8071   2.2879  12.6725 C.ar           1 <1>               -0.0580
      2 C2         -23.0617   2.9321  13.8677 C.ar           1 <1>               -0.0400
      3 C3         -23.3513   4.2934  13.8602 C.ar           1 <1>                0.0390
      4 C4         -23.3605   4.9604  12.6978 C.ar           1 <1>                0.0207
      5 C5         -23.5812   6.2474  12.4089 C.ar           1 <1>               -0.0349
      6 C6         -23.4770   6.4105  11.0899 C.ar           1 <1>                0.0028
      7 N7         -23.1910   5.2239  10.5571 N.pl3          1 <1>               -0.3606
      8 C8         -23.1128   4.3325  11.5407 C.ar           1 <1>                0.0482
      9 C9         -22.8391   3.0318  11.5058 C.ar           1 <1>               -0.0377
     10 N10        -23.5511   4.9185  15.0373 N.pl3          1 <1>               -0.3270
     11 C11        -24.5436   4.3009  15.9754 C.3            1 <1>                0.0248
     12 C12        -24.4481   4.6952  17.4260 C.3            1 <1>                0.0117
     13 N13        -23.6922   5.9496  17.6263 N.3            1 <1>               -0.3130
     14 C14        -23.7847   6.7899  16.4305 C.3            1 <1>                0.0117
     15 C15        -22.9592   6.2412  15.3445 C.3            1 <1>                0.0248
     16 H1         -22.5902   1.2303  12.6644 H              1 <1>                0.0619
     17 H2         -23.0349   2.3799  14.7950 H              1 <1>                0.0636
     18 H5         -23.7997   6.9493  13.2008 H              1 <1>                0.0639
     19 H6         -23.6218   7.3872  10.6533 H              1 <1>                0.0807
     20 HN7        -23.0748   5.1339   9.5582 H              1 <1>                0.1653
     21 H9         -22.6411   2.5564  10.5561 H              1 <1>                0.0638
     22 H111       -24.4857   3.2157  15.8942 H              1 <1>                0.0476
     23 H112       -25.5516   4.5034  15.6141 H              1 <1>                0.0476
     24 H121       -23.9726   3.8924  17.9891 H              1 <1>                0.0439
     25 H122       -25.4511   4.8074  17.8377 H              1 <1>                0.0439
     26 HN13       -24.0753   6.4516  18.4148 H              1 <1>                0.1220
     27 H141       -23.4475   7.7989  16.6685 H              1 <1>                0.0439
     28 H142       -24.8238   6.8447  16.1049 H              1 <1>                0.0439
     29 H151       -23.0391   6.8854  14.4693 H              1 <1>                0.0476
     30 H152       -21.9378   6.1069  15.6995 H              1 <1>                0.0476
     31 ****       -22.7328   5.7262  17.7990 LP             1 <1>                0.0000
@<TRIPOS>BOND
    1    1    2 ar    
    2    1    9 ar    
    3    1   16 1     
    4    2    3 ar    
    5    2   17 1     
    6    3    4 ar    
    7    3   10 1     
    8    4    5 ar    
    9    4    8 ar    
   10    5    6 ar    
   11    5   18 1     
   12    6    7 ar    
   13    6   19 1     
   14    7    8 ar    
   15    7   20 1     
   16    8    9 ar    
   17    9   21 1     
   18   10   11 1     
   19   10   15 1     
   20   11   12 1     
   21   11   22 1     
   22   11   23 1     
   23   12   13 1     
   24   12   24 1     
   25   12   25 1     
   26   13   14 1     
   27   13   26 1     
   28   14   15 1     
   29   14   27 1     
   30   14   28 1     
   31   15   29 1     
   32   15   30 1     
   33   13   31 1     
@<TRIPOS>SUBSTRUCTURE
      1 ****           1
@<TRIPOS>SET
LONE_PAIRS      STATIC     ATOMS    <user>   **** ""
1 31
DONOR_HYDROGENS      STATIC     ATOMS    <user>   **** ""
2 20 26
ATOM$BLUE        STATIC     ATOMS    COLORGROUP SYSTEM
1 31
ATOM$RED        STATIC     ATOMS    COLORGROUP SYSTEM
2 20 26
@<TRIPOS>COMMENT
> <Gold.Version>
5.5

> <Gold.Id.Protein>
unknown|bialko_beta1|pdb

> <Gold.Protein.ActiveResidues>
 ALA86   ASP87   VAL90   VAL94   VAL95   GLY98   ALA99   LEU101  VAL102  CYS114 
 GLU115  TRP117  THR118  SER119  LEU120  ASP121  VAL122  CYS124  VAL125  THR126 
 SER128  SER173  PHE174  ILE177  CYS199  ASP200  PHE201  TYR207  SER215  PHE299 
 TRP303  PHE306  PHE307  ASN310  PHE325  VAL326  ASN329  TRP330  GLY332  TYR333 
 SER336 

> <Gold.Score>
     Score     S(PLP)   S(hbond)     S(cho)   S(metal)  DE(clash)   DE(tors)     intcor
     54.99     -53.27       0.71       0.00       0.00       0.00       0.78       1.13

> <Gold.PLP.Fitness>
54.9943

> <Gold.PLP.PLP>
-53.2726

> <Gold.PLP.part.hbond>
-3.0797

> <Gold.PLP.part.metal>
0.0000

> <Gold.PLP.part.buried>
-1.8008

> <Gold.PLP.part.nonpolar>
-49.3139

> <Gold.PLP.part.repulsive>
0.0000

> <Gold.PLP.ligand.clash>
0.0000

> <Gold.PLP.ligand.torsion>
0.7778

> <Gold.PLP.Chemscore.Hbond>
0.7150

> <Gold.PLP.Chemscore.CHOScore>
0.0000

> <Gold.PLP.Chemscore.Metal>
0.0000

> <Gold.Chemscore.Hbonds>
donor molecule, donor type, donor heavy atom, donor atom, acceptor molecule, acceptor atom, score
      L1  H    13    26       P1  2066  0.71

> <Gold.PLP.Chemscore.Internal.Correction>
1.1321

