#       Name:                plp ligand
#       Creating user name   student
#       Creation time:       Mon Apr 08 15:57:30 2019


#       File generated by GOLD software.
#

@<TRIPOS>MOLECULE
plp ligand
    31    33     1
SMALL
GASTEIGER


@<TRIPOS>ATOM
      1 C1           0.7019  -2.2864  -2.1503 NONPOLAR       1 <1>               -0.0580
      2 C2           0.5219  -1.9104  -0.8333 NONPOLAR       1 <1>               -0.0400
      3 C3           0.0589  -0.6294  -0.5473 NONPOLAR       1 <1>                0.0390
      4 C4          -0.1871   0.2236  -1.5513 NONPOLAR       1 <1>                0.0207
      5 C5          -0.6091   1.4926  -1.5613 NONPOLAR       1 <1>               -0.0349
      6 C6          -0.6981   1.9006  -2.8273 NONPOLAR       1 <1>                0.0028
      7 N7          -0.3311   0.8846  -3.6063 DONOR          1 <1>               -0.3606
      8 C8          -0.0111  -0.1444  -2.8273 NONPOLAR       1 <1>                0.0482
      9 C9           0.4229  -1.3614  -3.1413 NONPOLAR       1 <1>               -0.0377
     10 N10         -0.0671  -0.2604   0.7427 NONPOLAR       1 <1>               -0.3270
     11 C11          0.9229   0.7366   1.2647 NONPOLAR       1 <1>                0.0248
     12 C12          0.5399   1.4896   2.5117 NONPOLAR       1 <1>                0.0117
     13 N13         -0.5391   0.8226   3.2707 DONACC         1 <1>               -0.3130
     14 C14         -0.5171  -0.6194   3.0157 NONPOLAR       1 <1>                0.0117
     15 C15         -1.0211  -0.9164   1.6667 NONPOLAR       1 <1>                0.0248
     16 H1           1.0519  -3.2804  -2.3853 0ÿ5i_          1 <1>                0.0619
     17 H2           0.7399  -2.6074  -0.0383 0ÿ5i_          1 <1>                0.0636
     18 H5          -0.8131   2.0016  -0.6303 0ÿ5i_          1 <1>                0.0639
     19 H6          -1.0241   2.9056  -3.0493 0ÿ5i_          1 <1>                0.0807
     20 HN7         -0.3341   0.9916  -4.6103 0ÿ5i_          1 <1>                0.1653
     21 H9           0.5569  -1.6254  -4.1803 0ÿ5i_          1 <1>                0.0638
     22 H111         1.1639   1.4486   0.4757 0ÿ5i_          1 <1>                0.0476
     23 H112         1.8799   0.2406   1.4247 0ÿ5i_          1 <1>                0.0476
     24 H121         0.2239   2.4976   2.2437 0ÿ5i_          1 <1>                0.0439
     25 H122         1.4159   1.6016   3.1507 0ÿ5i_          1 <1>                0.0439
     26 HN13        -0.4071   0.9866   4.2587 0ÿ5i_          1 <1>                0.1220
     27 H141        -1.1361  -1.1284   3.7547 0ÿ5i_          1 <1>                0.0439
     28 H142         0.5039  -0.9894   3.1117 0ÿ5i_          1 <1>                0.0439
     29 H151        -1.0011  -1.9934   1.5027 0ÿ5i_          1 <1>                0.0476
     30 H152        -2.0081  -0.4714   1.5437 0ÿ5i_          1 <1>                0.0476
     31 ****        -1.4197   1.1958   2.9786 0ÿ5i_          1 <1>                0.0000
@<TRIPOS>BOND
    1    1    2 ar    
    2    1    9 ar    
    3    1   16 1     
    4    2    3 ar    
    5    2   17 1     
    6    3    4 ar    
    7    3   10 1     
    8    4    5 ar    
    9    4    8 ar    
   10    5    6 ar    
   11    5   18 1     
   12    6    7 ar    
   13    6   19 1     
   14    7    8 ar    
   15    7   20 1     
   16    8    9 ar    
   17    9   21 1     
   18   10   11 1     
   19   10   15 1     
   20   11   12 1     
   21   11   22 1     
   22   11   23 1     
   23   12   13 1     
   24   12   24 1     
   25   12   25 1     
   26   13   14 1     
   27   13   26 1     
   28   14   15 1     
   29   14   27 1     
   30   14   28 1     
   31   15   29 1     
   32   15   30 1     
   33   13   31 1     
@<TRIPOS>SUBSTRUCTURE
      1 ****           1
@<TRIPOS>SET
LONE_PAIRS      STATIC     ATOMS    <user>   **** ""
1 31
DONOR_HYDROGENS      STATIC     ATOMS    <user>   **** ""
2 20 26
ATOM$BLUE        STATIC     ATOMS    COLORGROUP SYSTEM
1 31
ATOM$RED        STATIC     ATOMS    COLORGROUP SYSTEM
2 20 26
