#       Name:                C:\Users\porto\OneDrive\projekt\beta1\ligandy\L_4bvn.pdb L_4bvn.pdb 1
#       Creating user name   student
#       Creation time:       Mon Apr 08 14:55:27 2019


#       File generated by GOLD software.
#

@<TRIPOS>MOLECULE
C:\Users\porto\OneDrive\projekt\beta1\ligandy\L_4bvn.pdb L_4bvn.pdb 1|4bvn|mol2|1|dock28
    48    49     1
SMALL
GASTEIGER


@<TRIPOS>ATOM
      1 C1         -24.1578   6.9513  11.0797 C.2            1 <1>                0.1822
      2 N1         -23.7361   5.8983  10.4157 N.1            1 <1>               -0.3633
      3 O1         -23.9347   5.2126  14.8673 O.3            1 <1>               -0.4884
      4 C2         -24.1865   6.6684  12.4020 C.3            1 <1>                0.0496
      5 N2         -23.2947   7.2562  18.2850 N.3            1 <1>               -0.3088
      6 O2         -23.8983   4.5296  18.3950 O.3            1 <1>               -0.3872
      7 C3         -23.7914   5.4032  12.5479 C.ar           1 <1>                0.0656
      8 N3         -24.8101   9.4262  10.0013 N.1            1 <1>               -0.1885
      9 C4         -23.6538   4.6266  13.6413 C.ar           1 <1>                0.1336
     10 C5         -23.2735   3.3226  13.4879 C.ar           1 <1>               -0.0184
     11 C6         -23.0029   2.7896  12.2248 C.ar           1 <1>               -0.0489
     12 C7         -23.1869   3.6312  11.1164 C.ar           1 <1>                0.0031
     13 C8         -23.5639   4.9092  11.2925 C.ar           1 <1>               -0.0070
     14 C9         -23.8847   4.4128  15.9699 C.3            1 <1>                0.1166
     15 C10        -24.1919   5.2903  17.1822 C.3            1 <1>                0.1015
     16 C11        -23.3120   6.4932  17.0334 C.3            1 <1>                0.0256
     17 C12        -22.6971   8.6507  18.1199 C.3            1 <1>                0.0108
     18 C13        -22.6146   9.4256  19.4758 C.3            1 <1>               -0.0473
     19 C14        -23.5859   9.4997  17.1597 C.3            1 <1>               -0.0473
     20 C15        -21.2820   8.6642  17.5163 C.3            1 <1>               -0.0473
     21 C16        -24.4864   8.2747  10.4922 C.1            1 <1>                0.1289
     22 H21        -25.2051   6.7751  12.7737 H              1 <1>                0.0403
     23 H22        -23.4966   7.3268  12.9292 H              1 <1>                0.0403
     24 HN2        -24.2388   7.3642  18.6277 H              1 <1>                0.1225
     25 HO2        -24.4160   4.8776  19.1248 H              1 <1>                0.2100
     26 H5         -23.1771   2.6830  14.3530 H              1 <1>                0.0654
     27 H6         -22.6662   1.7671  12.1303 H              1 <1>                0.0625
     28 H7         -23.0259   3.2523  10.1182 H              1 <1>                0.0725
     29 H91        -22.8831   3.9945  16.0693 H              1 <1>                0.0723
     30 H92        -24.6413   3.6323  15.8867 H              1 <1>                0.0723
     31 H10        -25.2403   5.5895  17.1721 H              1 <1>                0.0640
     32 H111       -22.2993   6.1743  16.7893 H              1 <1>                0.0451
     33 H112       -23.6915   7.1234  16.2293 H              1 <1>                0.0451
     34 H131       -22.1824  10.4119  19.3057 H              1 <1>                0.0247
     35 H132       -23.6152   9.5350  19.8939 H              1 <1>                0.0247
     36 H133       -21.9882   8.8711  20.1740 H              1 <1>                0.0247
     37 H141       -23.1527  10.4939  17.0468 H              1 <1>                0.0247
     38 H142       -23.6363   9.0134  16.1858 H              1 <1>                0.0247
     39 H143       -24.5905   9.5859  17.5748 H              1 <1>                0.0247
     40 H151       -20.9312   9.6932  17.4332 H              1 <1>                0.0247
     41 H152       -20.6065   8.1013  18.1605 H              1 <1>                0.0247
     42 H153       -21.3039   8.2074  16.5268 H              1 <1>                0.0247
     43 ****       -24.8581   5.5927  14.8138 LP             1 <1>                0.0000
     44 ****       -23.2768   5.9533  15.0037 LP             1 <1>                0.0000
     45 ****       -22.7242   6.7419  18.9253 LP             1 <1>                0.0000
     46 ****       -22.9248   4.6079  18.6099 LP             1 <1>                0.0000
     47 ****       -24.1314   3.5681  18.2498 LP             1 <1>                0.0000
     48 ****       -25.0604  10.3168   9.6217 LP             1 <1>                0.0000
@<TRIPOS>BOND
    1    1    4 1     
    2    1   21 1     
    3    1    2 2     
    4    2   13 2     
    5    3    9 1     
    6    3   14 1     
    7    4    7 1     
    8    4   22 1     
    9    4   23 1     
   10    5   17 1     
   11    5   16 1     
   12    5   24 1     
   13    6   15 1     
   14    6   25 1     
   15    7    9 ar    
   16    7   13 ar    
   17    8   21 3     
   18    9   10 ar    
   19   10   11 ar    
   20   10   26 1     
   21   11   12 ar    
   22   11   27 1     
   23   12   13 ar    
   24   12   28 1     
   25   14   15 1     
   26   14   29 1     
   27   14   30 1     
   28   15   16 1     
   29   15   31 1     
   30   16   32 1     
   31   16   33 1     
   32   17   18 1     
   33   17   19 1     
   34   17   20 1     
   35   18   34 1     
   36   18   35 1     
   37   18   36 1     
   38   19   37 1     
   39   19   38 1     
   40   19   39 1     
   41   20   40 1     
   42   20   41 1     
   43   20   42 1     
   44    3   43 1     
   45    3   44 1     
   46    5   45 1     
   47    6   46 1     
   48    6   47 1     
   49    8   48 1     
@<TRIPOS>SUBSTRUCTURE
      1 ****           1
@<TRIPOS>SET
LONE_PAIRS      STATIC     ATOMS    <user>   **** ""
6 43 44 45 46 47 48
DONOR_HYDROGENS      STATIC     ATOMS    <user>   **** ""
2 24 25
ATOM$BLUE        STATIC     ATOMS    COLORGROUP SYSTEM
6 43 44 45 46 47 48
ATOM$RED        STATIC     ATOMS    COLORGROUP SYSTEM
2 24 25
@<TRIPOS>COMMENT
> <Gold.Version>
5.5

> <Gold.Id.Protein>
unknown|bialko_beta1|pdb

> <Gold.Protein.ActiveResidues>
 ALA86   ASP87   VAL90   VAL94   VAL95   GLY98   ALA99   LEU101  VAL102  CYS114 
 GLU115  TRP117  THR118  SER119  LEU120  ASP121  VAL122  CYS124  VAL125  THR126 
 SER128  SER173  PHE174  ILE177  CYS199  ASP200  PHE201  TYR207  SER215  PHE299 
 TRP303  PHE306  PHE307  ASN310  PHE325  VAL326  ASN329  TRP330  GLY332  TYR333 
 SER336 

> <Gold.Score>
     Score     S(PLP)   S(hbond)     S(cho)   S(metal)  DE(clash)   DE(tors)     intcor
     68.06     -65.84       1.00       0.00       0.00       0.00       0.40       0.02

> <Gold.PLP.Fitness>
68.0593

> <Gold.PLP.PLP>
-65.8414

> <Gold.PLP.part.hbond>
-4.8971

> <Gold.PLP.part.metal>
0.0000

> <Gold.PLP.part.buried>
-4.4751

> <Gold.PLP.part.nonpolar>
-56.4368

> <Gold.PLP.part.repulsive>
0.6432

> <Gold.PLP.ligand.clash>
0.0000

> <Gold.PLP.ligand.torsion>
0.4026

> <Gold.PLP.Chemscore.Hbond>
1.0000

> <Gold.PLP.Chemscore.CHOScore>
0.0000

> <Gold.PLP.Chemscore.Metal>
0.0000

> <Gold.Chemscore.Hbonds>
donor molecule, donor type, donor heavy atom, donor atom, acceptor molecule, acceptor atom, score
      L1  H     5    24       P1  2066  1.00

> <Gold.PLP.Chemscore.Internal.Correction>
0.0232

