#       Name:                C:\Users\porto\OneDrive\projekt\beta1\ligandy\L_6h7j.pdb L_6h7j.pdb 1
#       Creating user name   student
#       Creation time:       Mon Apr 08 14:20:29 2019


#       File generated by GOLD software.
#

@<TRIPOS>MOLECULE
C:\Users\porto\OneDrive\projekt\beta1\ligandy\L_6h7j.pdb L_6h7j.pdb 1|6h7j|mol2|1|dock2
    39    39     1
SMALL
GASTEIGER


@<TRIPOS>ATOM
      1 CAE        -23.7438   6.6472  16.5414 C.3            1 <1>                0.0927
      2 CAF        -22.6314   7.7016  16.4908 C.3            1 <1>                0.0263
      3 CAG        -21.6164   9.5862  17.7018 C.3            1 <1>                0.0021
      4 CAH        -23.5877   5.6595  15.3772 C.ar           1 <1>               -0.0143
      5 CAI        -21.9668  10.7059  18.6923 C.3            1 <1>               -0.0499
      6 CAJ        -20.2978   8.9028  18.1015 C.3            1 <1>               -0.0499
      7 CAK        -23.5874   6.1427  14.0671 C.ar           1 <1>               -0.0109
      8 CAL        -23.4525   4.2861  15.5999 C.ar           1 <1>               -0.0524
      9 CAM        -23.4360   5.2728  12.9882 C.ar           1 <1>                0.1586
     10 CAN        -23.3150   3.4099  14.5251 C.ar           1 <1>               -0.0162
     11 CAO        -23.3063   3.9046  13.2232 C.ar           1 <1>                0.1582
     12 NAD        -22.7600   8.6488  17.6211 N.3            1 <1>               -0.3110
     13 OAA        -23.6776   5.9813  17.7987 O.3            1 <1>               -0.3859
     14 OAB        -23.4279   5.7541  11.7149 O.3            1 <1>               -0.5033
     15 OAC        -23.1727   3.0491  12.1865 O.3            1 <1>               -0.5033
     16 HAE        -24.7094   7.1465  16.4552 H              1 <1>                0.0656
     17 HAF1       -22.6921   8.2488  15.5504 H              1 <1>                0.0453
     18 HAF2       -21.6609   7.2078  16.5399 H              1 <1>                0.0453
     19 HAG        -21.4791  10.0361  16.7187 H              1 <1>                0.0455
     20 HAI1       -22.9032  11.1771  18.3929 H              1 <1>                0.0245
     21 HAI2       -22.0761  10.2865  19.6924 H              1 <1>                0.0245
     22 HAI3       -21.1704  11.4500  18.6963 H              1 <1>                0.0245
     23 HAJ1       -19.5008   9.6449  18.1420 H              1 <1>                0.0245
     24 HAJ2       -20.4116   8.4378  19.0806 H              1 <1>                0.0245
     25 HAJ3       -20.0455   8.1401  17.3648 H              1 <1>                0.0245
     26 HAK        -23.7052   7.1996  13.8819 H              1 <1>                0.0659
     27 HAL        -23.4544   3.8993  16.6086 H              1 <1>                0.0622
     28 HAN        -23.2148   2.3491  14.7021 H              1 <1>                0.0655
     29 HNAD       -23.6036   9.1932  17.5099 H              1 <1>                0.1223
     30 HOAA       -24.2683   6.4113  18.4207 H              1 <1>                0.2103
     31 HOAB       -23.8809   5.1365  11.1366 H              1 <1>                0.2923
     32 HOAC       -22.5346   3.4002  11.5614 H              1 <1>                0.2923
     33 ****       -22.7846   8.1042  18.4595 LP             1 <1>                0.0000
     34 ****       -22.7412   6.0201  18.1473 LP             1 <1>                0.0000
     35 ****       -23.9516   5.0263  17.6848 LP             1 <1>                0.0000
     36 ****       -22.4831   5.8671  11.4074 LP             1 <1>                0.0000
     37 ****       -23.8947   6.6381  11.6898 LP             1 <1>                0.0000
     38 ****       -24.0563   2.9354  11.7323 LP             1 <1>                0.0000
     39 ****       -22.8552   2.1631  12.5245 LP             1 <1>                0.0000
@<TRIPOS>BOND
    1    1    4 1     
    2    1   13 1     
    3    1    2 1     
    4    1   16 1     
    5    2   12 1     
    6    2   17 1     
    7    2   18 1     
    8    3    6 1     
    9    3   12 1     
   10    3    5 1     
   11    3   19 1     
   12    4    7 ar    
   13    4    8 ar    
   14    5   20 1     
   15    5   21 1     
   16    5   22 1     
   17    6   23 1     
   18    6   24 1     
   19    6   25 1     
   20    7    9 ar    
   21    7   26 1     
   22    8   10 ar    
   23    8   27 1     
   24    9   14 1     
   25    9   11 ar    
   26   10   11 ar    
   27   10   28 1     
   28   11   15 1     
   29   12   29 1     
   30   13   30 1     
   31   14   31 1     
   32   15   32 1     
   33   12   33 1     
   34   13   34 1     
   35   13   35 1     
   36   14   36 1     
   37   14   37 1     
   38   15   38 1     
   39   15   39 1     
@<TRIPOS>SUBSTRUCTURE
      1 ****           1
@<TRIPOS>SET
LONE_PAIRS      STATIC     ATOMS    <user>   **** ""
7 33 34 35 36 37 38 39
DONOR_HYDROGENS      STATIC     ATOMS    <user>   **** ""
4 29 30 31 32
ATOM$BLUE        STATIC     ATOMS    COLORGROUP SYSTEM
7 33 34 35 36 37 38 39
ATOM$RED        STATIC     ATOMS    COLORGROUP SYSTEM
4 29 30 31 32
@<TRIPOS>COMMENT
> <Gold.Version>
5.5

> <Gold.Id.Protein>
unknown|bialko_beta1|pdb

> <Gold.Protein.ActiveResidues>
 ALA86   ASP87   VAL90   VAL94   VAL95   GLY98   ALA99   LEU101  VAL102  CYS114 
 GLU115  TRP117  THR118  SER119  LEU120  ASP121  VAL122  CYS124  VAL125  THR126 
 SER128  SER173  PHE174  ILE177  CYS199  ASP200  PHE201  TYR207  SER215  PHE299 
 TRP303  PHE306  PHE307  ASN310  PHE325  VAL326  ASN329  TRP330  GLY332  TYR333 
 SER336 

> <Gold.Score>
     Score     S(PLP)   S(hbond)     S(cho)   S(metal)  DE(clash)   DE(tors)     intcor
     53.13     -50.27       1.00       0.00       0.00       0.00       0.08       0.01

> <Gold.PLP.Fitness>
53.1278

> <Gold.PLP.PLP>
-50.2704

> <Gold.PLP.part.hbond>
-3.6340

> <Gold.PLP.part.metal>
0.0000

> <Gold.PLP.part.buried>
-5.6547

> <Gold.PLP.part.nonpolar>
-41.8618

> <Gold.PLP.part.repulsive>
0.0000

> <Gold.PLP.ligand.clash>
0.0000

> <Gold.PLP.ligand.torsion>
0.0776

> <Gold.PLP.Chemscore.Hbond>
1.0000

> <Gold.PLP.Chemscore.CHOScore>
0.0000

> <Gold.PLP.Chemscore.Metal>
0.0000

> <Gold.Chemscore.Hbonds>
donor molecule, donor type, donor heavy atom, donor atom, acceptor molecule, acceptor atom, score
      L1  H    13    30       P1  2066  1.00

> <Gold.PLP.Chemscore.Internal.Correction>
0.0126

