#       Name:                C:\Users\porto\OneDrive\projekt\beta2\ligandy\L_4ldo.pdb L_4ldo.pdb 1
#       Creating user name   student
#       Creation time:       Mon Apr 08 15:48:48 2019


#       File generated by GOLD software.
#

@<TRIPOS>MOLECULE
C:\Users\porto\OneDrive\projekt\beta2\ligandy\L_4ldo.pdb L_4ldo.pdb 1|4ldo|mol2|1|dock1
    33    33     1
SMALL
GASTEIGER


@<TRIPOS>ATOM
      1 C1         -29.1871  10.1103   7.2837 C.ar           1 <1>               -0.0143
      2 N1         -26.3270   9.3821   5.1283 N.3            1 <1>               -0.3162
      3 O1         -32.2107   8.1432   7.9301 O.3            1 <1>               -0.5033
      4 C2         -30.0027   8.9970   7.4650 C.ar           1 <1>               -0.0109
      5 O2         -33.2144  10.5526   8.1024 O.3            1 <1>               -0.5033
      6 C3         -31.3530   9.1820   7.7396 C.ar           1 <1>                0.1586
      7 O3         -27.2029   9.2099   8.0686 O.3            1 <1>               -0.3859
      8 C4         -31.8844  10.4597   7.8305 C.ar           1 <1>                0.1582
      9 C5         -31.0767  11.5756   7.6494 C.ar           1 <1>               -0.0162
     10 C6         -29.7239  11.3923   7.3758 C.ar           1 <1>               -0.0524
     11 C7         -27.8340   9.9336   7.0085 C.3            1 <1>                0.0927
     12 C8         -27.6672   9.1699   5.6932 C.3            1 <1>                0.0258
     13 C9         -25.3642   8.4969   5.7974 C.3            1 <1>               -0.0157
     14 HN1        -26.3414   9.1754   4.1401 H              1 <1>                0.1217
     15 HO1        -32.7600   8.3181   8.6975 H              1 <1>                0.2923
     16 H2         -29.5846   8.0040   7.3919 H              1 <1>                0.0659
     17 HO2        -33.7088  10.5801   7.2800 H              1 <1>                0.2923
     18 HO3        -26.6242   8.5385   7.6985 H              1 <1>                0.2103
     19 H5         -31.5006  12.5668   7.7219 H              1 <1>                0.0655
     20 H6         -29.0900  12.2548   7.2350 H              1 <1>                0.0622
     21 H7         -27.3607  10.9103   6.9147 H              1 <1>                0.0656
     22 H81        -27.8220   8.1058   5.8693 H              1 <1>                0.0453
     23 H82        -28.4193   9.5075   4.9803 H              1 <1>                0.0453
     24 H91        -24.3707   8.6555   5.3771 H              1 <1>                0.0388
     25 H92        -25.3465   8.7194   6.8643 H              1 <1>                0.0388
     26 H93        -25.6596   7.4582   5.6473 H              1 <1>                0.0388
     27 ****       -26.0560  10.3346   5.2674 LP             1 <1>                0.0000
     28 ****       -31.6890   7.3031   8.0782 LP             1 <1>                0.0000
     29 ****       -32.7907   8.0375   7.1223 LP             1 <1>                0.0000
     30 ****       -33.3902  11.3870   8.6248 LP             1 <1>                0.0000
     31 ****       -33.5015   9.7579   8.6373 LP             1 <1>                0.0000
     32 ****       -27.9011   8.7725   8.6353 LP             1 <1>                0.0000
     33 ****       -26.6659   9.8406   8.6289 LP             1 <1>                0.0000
@<TRIPOS>BOND
    1    1    4 ar    
    2    1   10 ar    
    3    1   11 1     
    4    2   12 1     
    5    2   13 1     
    6    2   14 1     
    7    3    6 1     
    8    3   15 1     
    9    4    6 ar    
   10    4   16 1     
   11    5    8 1     
   12    5   17 1     
   13    6    8 ar    
   14    7   11 1     
   15    7   18 1     
   16    8    9 ar    
   17    9   10 ar    
   18    9   19 1     
   19   10   20 1     
   20   11   12 1     
   21   11   21 1     
   22   12   22 1     
   23   12   23 1     
   24   13   24 1     
   25   13   25 1     
   26   13   26 1     
   27    2   27 1     
   28    3   28 1     
   29    3   29 1     
   30    5   30 1     
   31    5   31 1     
   32    7   32 1     
   33    7   33 1     
@<TRIPOS>SUBSTRUCTURE
      1 ****           1
@<TRIPOS>SET
LONE_PAIRS      STATIC     ATOMS    <user>   **** ""
7 27 28 29 30 31 32 33
DONOR_HYDROGENS      STATIC     ATOMS    <user>   **** ""
4 14 15 17 18
ATOM$BLUE        STATIC     ATOMS    COLORGROUP SYSTEM
7 27 28 29 30 31 32 33
ATOM$RED        STATIC     ATOMS    COLORGROUP SYSTEM
4 14 15 17 18
@<TRIPOS>COMMENT
> <Gold.Version>
5.5

> <Gold.Id.Protein>
unknown|dok_beta2|pdb

> <Gold.Protein.RotatedTorsions>
[ 4175 4166 4165 4163 ] final  147.27 input -179.98 | X-H torsion
[ 1294 1290 1288 1285 ] final  -47.33 input -179.99 | X-H torsion
[ 4033 4024 4023 4021 ] final  114.55 input  179.98 | X-H torsion
[ 1412 1408 1406 1403 ] final  114.02 input -179.99 | X-H torsion
[ 2830 2825 2824 2821 ] final -142.64 input -179.98 | X-H torsion
[ 2723 2714 2713 2711 ] final  176.04 input -179.98 | X-H torsion
[ 2773 2768 2767 2764 ] final  -29.58 input  180.00 | X-H torsion

> <Gold.Protein.ActiveResidues>
 TRP109  THR110  ASP113  VAL114  VAL117  THR118  PHE193  TYR199  SER203  SER207 
 PHE208  TRP286  PHE289  PHE290  ASN293  TYR308  ASN312  TYR316 

> <Gold.Protein.RotatedAtoms>
  -34.8371    4.6862    2.5488 H   0  0  0  0  0  0  0  0  0  0  0  0  # atno 1294 bound_to 1290
  -28.1059   14.5418    2.0024 H   0  0  0  0  0  0  0  0  0  0  0  0  # atno 1412 bound_to 1408
  -26.8694    7.3814    2.7980 H   0  0  0  0  0  0  0  0  0  0  0  0  # atno 2723 bound_to 2714
  -23.9085   10.8763    3.5295 H   0  0  0  0  0  0  0  0  0  0  0  0  # atno 2773 bound_to 2768
  -25.0844   13.3747    2.4595 H   0  0  0  0  0  0  0  0  0  0  0  0  # atno 2830 bound_to 2825
  -28.8609    7.0442   11.2588 H   0  0  0  0  0  0  0  0  0  0  0  0  # atno 4033 bound_to 4024
  -36.7001    9.3399    7.1162 H   0  0  0  0  0  0  0  0  0  0  0  0  # atno 4175 bound_to 4166
  -37.7840    8.4318    7.8655 LP  0  0  0  0  0  0  0  0  0  0  0  0  # atno 4597 bound_to 4166
  -36.2762    8.5993    8.4700 LP  0  0  0  0  0  0  0  0  0  0  0  0  # atno 4598 bound_to 4166
  -33.8859    3.6187    1.8298 LP  0  0  0  0  0  0  0  0  0  0  0  0  # atno 4603 bound_to 1290
  -35.2487    4.1449    1.1001 LP  0  0  0  0  0  0  0  0  0  0  0  0  # atno 4604 bound_to 1290
  -29.1120    5.6189   10.5749 LP  0  0  0  0  0  0  0  0  0  0  0  0  # atno 4607 bound_to 4024
  -27.7339    5.9161   11.3990 LP  0  0  0  0  0  0  0  0  0  0  0  0  # atno 4608 bound_to 4024
  -27.6614   15.1336    3.4214 LP  0  0  0  0  0  0  0  0  0  0  0  0  # atno 4611 bound_to 1408
  -26.5653   14.9094    2.2319 LP  0  0  0  0  0  0  0  0  0  0  0  0  # atno 4612 bound_to 1408
  -23.7300   12.8176    3.1040 LP  0  0  0  0  0  0  0  0  0  0  0  0  # atno 4613 bound_to 2825
  -23.7083   14.1120    2.1088 LP  0  0  0  0  0  0  0  0  0  0  0  0  # atno 4614 bound_to 2825

> <Gold.Score>
     Score     S(PLP)   S(hbond)     S(cho)   S(metal)  DE(clash)   DE(tors)     intcor
     51.01     -41.22       3.46       0.00       0.00       0.00       0.29       0.00

> <Gold.PLP.Fitness>
51.0076

> <Gold.PLP.PLP>
-41.2172

> <Gold.PLP.part.hbond>
-4.9896

> <Gold.PLP.part.metal>
0.0000

> <Gold.PLP.part.buried>
-5.7779

> <Gold.PLP.part.nonpolar>
-32.0281

> <Gold.PLP.part.repulsive>
0.0000

> <Gold.PLP.ligand.clash>
0.0000

> <Gold.PLP.ligand.torsion>
0.2903

> <Gold.PLP.Chemscore.Hbond>
3.4560

> <Gold.PLP.Chemscore.CHOScore>
0.0000

> <Gold.PLP.Chemscore.Metal>
0.0000

> <Gold.Chemscore.Hbonds>
donor molecule, donor type, donor heavy atom, donor atom, acceptor molecule, acceptor atom, score
      L1  H     3    15       P1  4098  1.00
      L1  H     5    17       P1  1334  1.00
      P1  H  4097  4104       L1     5  0.99
      P1  H  3760  3767       L1     7  0.46

> <Gold.PLP.Chemscore.Internal.Correction>
0.0030

