#       Name:                C:\Users\porto\OneDrive\projekt\beta2\ligandy\L_4lde.pdb L_4lde.pdb 1
#       Creating user name   student
#       Creation time:       Mon Apr 08 16:07:32 2019


#       File generated by GOLD software.
#

@<TRIPOS>MOLECULE
C:\Users\porto\OneDrive\projekt\beta2\ligandy\L_4lde.pdb L_4lde.pdb 1|4lde|mol2|1|dock37
    62    64     1
SMALL
GASTEIGER


@<TRIPOS>ATOM
      1 CAA        -36.5418   5.6825  10.6868 C.3            1 <1>               -0.0395
      2 CAB        -33.7818   6.0921   6.0332 C.3            1 <1>               -0.0467
      3 CAC        -32.6311   5.9260   8.2411 C.3            1 <1>               -0.0467
      4 CAG        -35.4909   2.2327   9.5990 C.ar           1 <1>               -0.0615
      5 CAH        -34.8464   2.4835   8.3930 C.ar           1 <1>               -0.0615
      6 CAI        -36.0356   3.2761  10.3355 C.ar           1 <1>               -0.0586
      7 CAJ        -34.7397   3.7817   7.9292 C.ar           1 <1>               -0.0583
      8 CAK        -29.8838  12.3939   6.2928 C.ar           1 <1>               -0.0178
      9 CAL        -30.9262  11.6917   6.8919 C.ar           1 <1>               -0.0490
     10 CAM        -27.9763   8.0441   7.6169 C.3            1 <1>                0.1656
     11 CAN        -32.3667   8.5012   6.9554 C.3            1 <1>                0.0267
     12 CAO        -35.1611   6.2374   8.1145 C.3            1 <1>               -0.0096
     13 CAS        -26.9432   8.7426   6.7533 C.2            1 <1>                0.2550
     14 CAT        -35.9360   4.5766   9.8642 C.ar           1 <1>               -0.0472
     15 CAU        -28.6796  11.7577   6.0160 C.ar           1 <1>                0.1416
     16 CAV        -35.2998   4.8306   8.6541 C.ar           1 <1>               -0.0427
     17 CAW        -30.7718  10.3483   7.2164 C.ar           1 <1>                0.0258
     18 CAX        -28.5180  10.4267   6.3441 C.ar           1 <1>                0.1180
     19 CAY        -29.5526   9.7244   6.9403 C.ar           1 <1>                0.1515
     20 CAZ        -31.8991   9.6251   7.8641 C.3            1 <1>                0.0960
     21 NAP        -33.6192   7.9828   7.4634 N.3            1 <1>               -0.3080
     22 NAQ        -27.3488   9.8050   6.0647 N.am           1 <1>               -0.2769
     23 OAD        -25.7926   8.3357   6.7029 O.2            1 <1>               -0.2717
     24 OAE        -27.6530  12.4369   5.4293 O.3            1 <1>               -0.5048
     25 OAF        -33.0252  10.4856   8.1019 O.3            1 <1>               -0.3858
     26 OAR        -29.3040   8.4081   7.2229 O.3            1 <1>               -0.4804
     27 CBA        -33.8015   6.5467   7.4872 C.3            1 <1>                0.0176
     28 HAA1       -36.3813   6.6372  10.1868 H              1 <1>                0.0278
     29 HAA2       -37.6114   5.5073  10.8009 H              1 <1>                0.0278
     30 HAA3       -36.0712   5.7045  11.6697 H              1 <1>                0.0278
     31 HAB1       -34.6211   6.5392   5.5003 H              1 <1>                0.0247
     32 HAB2       -32.8477   6.4049   5.5664 H              1 <1>                0.0247
     33 HAB3       -33.8628   5.0058   5.9904 H              1 <1>                0.0247
     34 HAC1       -32.6517   6.2555   9.2798 H              1 <1>                0.0247
     35 HAC2       -32.7094   4.8397   8.2030 H              1 <1>                0.0247
     36 HAC3       -31.6941   6.2389   7.7800 H              1 <1>                0.0247
     37 HAG        -35.5708   1.2210   9.9689 H              1 <1>                0.0618
     38 HAH        -34.4308   1.6662   7.8223 H              1 <1>                0.0618
     39 HAI        -36.5347   3.0735  11.2716 H              1 <1>                0.0620
     40 HAJ        -34.2219   3.9830   7.0033 H              1 <1>                0.0620
     41 HAK        -30.0091  13.4369   6.0415 H              1 <1>                0.0655
     42 HAL        -31.8600  12.1902   7.1063 H              1 <1>                0.0623
     43 HAM1       -27.8202   8.3161   8.6607 H              1 <1>                0.0795
     44 HAM2       -27.8547   6.9644   7.5276 H              1 <1>                0.0795
     45 HAN1       -31.6211   7.7058   6.9480 H              1 <1>                0.0453
     46 HAN2       -32.5158   8.8880   5.9468 H              1 <1>                0.0453
     47 HAO1       -35.3605   6.9515   8.9135 H              1 <1>                0.0331
     48 HAO2       -35.9466   6.4226   7.3822 H              1 <1>                0.0331
     49 HAZ        -31.5604   9.2049   8.8114 H              1 <1>                0.0657
     50 HNAP       -33.7423   8.2787   8.4213 H              1 <1>                0.1225
     51 HNAQ       -26.7799  10.1665   5.3121 H              1 <1>                0.1551
     52 HOAE       -27.1419  11.8354   4.8834 H              1 <1>                0.2922
     53 HOAF       -33.4705  10.6681   7.2705 H              1 <1>                0.2103
     54 ****       -34.2795   8.3474   6.8068 LP             1 <1>                0.0000
     55 ****       -25.5223   7.5332   7.2349 LP             1 <1>                0.0000
     56 ****       -25.1209   8.8051   6.1298 LP             1 <1>                0.0000
     57 ****       -27.0639  12.8269   6.1371 LP             1 <1>                0.0000
     58 ****       -28.0217  13.1719   4.8603 LP             1 <1>                0.0000
     59 ****       -32.7092  11.3440   8.5061 LP             1 <1>                0.0000
     60 ****       -33.6614  10.0362   8.7290 LP             1 <1>                0.0000
     61 ****       -29.9181   8.1424   7.9660 LP             1 <1>                0.0000
     62 ****       -29.5258   7.8809   6.4026 LP             1 <1>                0.0000
@<TRIPOS>BOND
    1    1   14 1     
    2    1   28 1     
    3    1   29 1     
    4    1   30 1     
    5    2   27 1     
    6    2   31 1     
    7    2   32 1     
    8    2   33 1     
    9    3   27 1     
   10    3   34 1     
   11    3   35 1     
   12    3   36 1     
   13    4    5 ar    
   14    4    6 ar    
   15    4   37 1     
   16    5    7 ar    
   17    5   38 1     
   18    6   14 ar    
   19    6   39 1     
   20    7   16 ar    
   21    7   40 1     
   22    8    9 ar    
   23    8   15 ar    
   24    8   41 1     
   25    9   17 ar    
   26    9   42 1     
   27   10   13 1     
   28   10   26 1     
   29   10   43 1     
   30   10   44 1     
   31   11   20 1     
   32   11   21 1     
   33   11   45 1     
   34   11   46 1     
   35   12   16 1     
   36   12   27 1     
   37   12   47 1     
   38   12   48 1     
   39   13   22 am    
   40   13   23 2     
   41   14   16 ar    
   42   15   18 ar    
   43   15   24 1     
   44   17   19 ar    
   45   17   20 1     
   46   18   19 ar    
   47   18   22 1     
   48   19   26 1     
   49   20   25 1     
   50   20   49 1     
   51   21   27 1     
   52   21   50 1     
   53   22   51 1     
   54   24   52 1     
   55   25   53 1     
   56   21   54 1     
   57   23   55 1     
   58   23   56 1     
   59   24   57 1     
   60   24   58 1     
   61   25   59 1     
   62   25   60 1     
   63   26   61 1     
   64   26   62 1     
@<TRIPOS>SUBSTRUCTURE
      1 ****           1
@<TRIPOS>SET
LONE_PAIRS      STATIC     ATOMS    <user>   **** ""
9 54 55 56 57 58 59 60 61 62
DONOR_HYDROGENS      STATIC     ATOMS    <user>   **** ""
4 50 51 52 53
ATOM$BLUE        STATIC     ATOMS    COLORGROUP SYSTEM
9 54 55 56 57 58 59 60 61 62
ATOM$RED        STATIC     ATOMS    COLORGROUP SYSTEM
4 50 51 52 53
@<TRIPOS>COMMENT
> <Gold.Version>
5.5

> <Gold.Id.Protein>
unknown|dok_beta2|pdb

> <Gold.Protein.RotatedTorsions>
[ 4175 4166 4165 4163 ] final  -92.65 input -179.98 | X-H torsion
[ 1294 1290 1288 1285 ] final  -32.42 input -179.99 | X-H torsion
[ 4033 4024 4023 4021 ] final   71.47 input  179.98 | X-H torsion
[ 1412 1408 1406 1403 ] final   91.16 input -179.99 | X-H torsion
[ 2830 2825 2824 2821 ] final  -57.41 input -179.98 | X-H torsion
[ 2723 2714 2713 2711 ] final  148.11 input -179.98 | X-H torsion
[ 2773 2768 2767 2764 ] final -104.95 input  180.00 | X-H torsion

> <Gold.Protein.ActiveResidues>
 TRP109  THR110  ASP113  VAL114  VAL117  THR118  PHE193  TYR199  SER203  SER207 
 PHE208  TRP286  PHE289  PHE290  ASN293  TYR308  ASN312  TYR316 

> <Gold.Protein.RotatedAtoms>
  -35.0254    4.7437    2.4206 H   0  0  0  0  0  0  0  0  0  0  0  0  # atno 1294 bound_to 1290
  -28.2907   14.6155    2.3008 H   0  0  0  0  0  0  0  0  0  0  0  0  # atno 1412 bound_to 1408
  -27.0113    7.1083    2.4881 H   0  0  0  0  0  0  0  0  0  0  0  0  # atno 2723 bound_to 2714
  -24.5592   10.0426    3.8539 H   0  0  0  0  0  0  0  0  0  0  0  0  # atno 2773 bound_to 2768
  -24.2507   14.1483    2.0048 H   0  0  0  0  0  0  0  0  0  0  0  0  # atno 2830 bound_to 2825
  -29.3061    6.7047   10.9005 H   0  0  0  0  0  0  0  0  0  0  0  0  # atno 4033 bound_to 4024
  -36.3066    8.6164    8.4502 H   0  0  0  0  0  0  0  0  0  0  0  0  # atno 4175 bound_to 4166
  -36.6860    9.3527    7.0809 LP  0  0  0  0  0  0  0  0  0  0  0  0  # atno 4597 bound_to 4166
  -37.7844    8.4326    7.8641 LP  0  0  0  0  0  0  0  0  0  0  0  0  # atno 4598 bound_to 4166
  -33.8530    3.7190    2.0507 LP  0  0  0  0  0  0  0  0  0  0  0  0  # atno 4603 bound_to 1290
  -35.0855    3.9847    1.0129 LP  0  0  0  0  0  0  0  0  0  0  0  0  # atno 4604 bound_to 1290
  -28.5194    5.3170   10.7668 LP  0  0  0  0  0  0  0  0  0  0  0  0  # atno 4607 bound_to 4024
  -27.8629    6.5717   11.5802 LP  0  0  0  0  0  0  0  0  0  0  0  0  # atno 4608 bound_to 4024
  -27.2938   15.1997    3.4081 LP  0  0  0  0  0  0  0  0  0  0  0  0  # atno 4611 bound_to 1408
  -26.7403   14.7665    1.9342 LP  0  0  0  0  0  0  0  0  0  0  0  0  # atno 4612 bound_to 1408
  -24.9610   12.9499    2.7919 LP  0  0  0  0  0  0  0  0  0  0  0  0  # atno 4613 bound_to 2825
  -23.3466   13.1733    2.8949 LP  0  0  0  0  0  0  0  0  0  0  0  0  # atno 4614 bound_to 2825

> <Gold.Score>
     Score     S(PLP)   S(hbond)     S(cho)   S(metal)  DE(clash)   DE(tors)     intcor
     80.31     -74.75       2.90       0.00       0.00       1.57       1.02       0.50

> <Gold.PLP.Fitness>
80.3086

> <Gold.PLP.PLP>
-74.7467

> <Gold.PLP.part.hbond>
-4.2507

> <Gold.PLP.part.metal>
0.0000

> <Gold.PLP.part.buried>
-10.3343

> <Gold.PLP.part.nonpolar>
-61.1087

> <Gold.PLP.part.repulsive>
0.0421

> <Gold.PLP.ligand.clash>
1.5730

> <Gold.PLP.ligand.torsion>
1.0241

> <Gold.PLP.Chemscore.Hbond>
2.8960

> <Gold.PLP.Chemscore.CHOScore>
0.0000

> <Gold.PLP.Chemscore.Metal>
0.0000

> <Gold.Chemscore.Hbonds>
donor molecule, donor type, donor heavy atom, donor atom, acceptor molecule, acceptor atom, score
      L1  H    21    50       P1  4098  1.00
      L1  H    25    53       P1  1334  1.00
      P1  H  4097  4104       L1    25  0.90

> <Gold.PLP.Chemscore.Internal.Correction>
0.4951

