#       Name:                *****
#       Creating user name   student
#       Creation time:       Mon Mar 18 16:44:02 2019


#       File generated by GOLD software.
#

@<TRIPOS>MOLECULE
*****|CHEMBL476248|mol2|1|dock1
    59    63     1
SMALL
GASTEIGER


@<TRIPOS>ATOM
      1 O          -37.3686  11.4217   4.4104 O.2            1 <1>               -0.2459
      2 C          -38.2025  11.1177   5.2517 C.ar           1 <1>                0.3347
      3 N          -38.7513  12.0191   6.1831 N.am           1 <1>               -0.2905
      4 C          -38.3271  13.3852   6.3420 C.3            1 <1>                0.0409
      5 C          -36.8027  13.5460   6.2657 C.3            1 <1>                0.0172
      6 N          -36.3022  14.9218   6.1667 N.3            1 <1>               -0.2977
      7 C          -36.9971  15.8449   7.0929 C.3            1 <1>                0.0147
      8 C          -36.3231  17.2289   7.0958 C.3            1 <1>                0.0250
      9 N          -36.3151  17.7686   5.7267 N.pl3          1 <1>               -0.3275
     10 C          -35.7135  16.8854   4.7174 C.3            1 <1>                0.0250
     11 C          -36.3684  15.4807   4.7988 C.3            1 <1>                0.0147
     12 C          -36.6797  19.0692   5.4574 C.ar           1 <1>                0.0297
     13 C          -37.8935  19.6124   5.9002 C.ar           1 <1>               -0.0407
     14 C          -38.2375  20.9443   5.6412 C.ar           1 <1>               -0.0600
     15 C          -37.3663  21.7675   4.9372 C.ar           1 <1>               -0.0616
     16 C          -36.1536  21.2590   4.4914 C.ar           1 <1>               -0.0600
     17 C          -35.8206  19.9271   4.7514 C.ar           1 <1>               -0.0407
     18 C          -39.6975  11.3668   6.9660 C.ar           1 <1>                0.0703
     19 C          -40.4768  11.8828   7.9879 C.ar           1 <1>               -0.0360
     20 C          -41.3036  11.0027   8.6784 C.ar           1 <1>               -0.0597
     21 C          -41.3070   9.6374   8.3532 C.ar           1 <1>               -0.0597
     22 C          -40.5031   9.1350   7.3176 C.ar           1 <1>               -0.0357
     23 C          -39.7278  10.0187   6.5879 C.ar           1 <1>                0.0750
     24 N          -38.8261   9.8526   5.5019 N.am           1 <1>               -0.2608
     25 C          -38.5698   8.6552   4.7833 C.ar           1 <1>                0.0515
     26 C          -37.7894   8.6834   3.6146 C.ar           1 <1>               -0.0377
     27 C          -37.5240   7.5232   2.8763 C.ar           1 <1>               -0.0598
     28 C          -38.0284   6.2998   3.2968 C.ar           1 <1>               -0.0616
     29 C          -38.8159   6.2450   4.4398 C.ar           1 <1>               -0.0598
     30 C          -39.0990   7.4137   5.1591 C.ar           1 <1>               -0.0377
     31 H          -38.6865  13.7179   7.3214 H              1 <1>                0.0506
     32 H          -38.8322  14.0002   5.5908 H              1 <1>                0.0506
     33 H          -36.4092  12.9678   5.4194 H              1 <1>                0.0444
     34 H          -36.3488  13.0829   7.1521 H              1 <1>                0.0444
     35 H          -36.9885  15.4404   8.1110 H              1 <1>                0.0442
     36 H          -38.0470  15.9765   6.7959 H              1 <1>                0.0442
     37 H          -35.2899  17.1338   7.4535 H              1 <1>                0.0476
     38 H          -36.8395  17.8737   7.8138 H              1 <1>                0.0476
     39 H          -34.6333  16.8052   4.8896 H              1 <1>                0.0476
     40 H          -35.8662  17.2620   3.6993 H              1 <1>                0.0476
     41 H          -35.8587  14.8156   4.0923 H              1 <1>                0.0442
     42 H          -37.4125  15.5688   4.4686 H              1 <1>                0.0442
     43 H          -38.6099  18.9924   6.4329 H              1 <1>                0.0636
     44 H          -39.1902  21.3307   5.9906 H              1 <1>                0.0618
     45 H          -37.6299  22.8016   4.7384 H              1 <1>                0.0618
     46 H          -35.4557  21.8923   3.9510 H              1 <1>                0.0618
     47 H          -34.8449  19.5774   4.4249 H              1 <1>                0.0636
     48 H          -40.4495  12.9349   8.2564 H              1 <1>                0.0639
     49 H          -41.9313  11.3680   9.4884 H              1 <1>                0.0618
     50 H          -41.9332   8.9551   8.9255 H              1 <1>                0.0618
     51 H          -40.4909   8.0662   7.1560 H              1 <1>                0.0639
     52 H          -37.3483   9.6080   3.2512 H              1 <1>                0.0638
     53 H          -36.9221   7.5850   1.9730 H              1 <1>                0.0618
     54 H          -37.8234   5.3977   2.7274 H              1 <1>                0.0618
     55 H          -39.2336   5.2959   4.7659 H              1 <1>                0.0618
     56 H          -39.7987   7.3194   5.9795 H              1 <1>                0.0638
     57 ****       -37.0348  12.3627   4.3545 LP             1 <1>                0.0000
     58 ****       -37.0206  10.7294   3.7783 LP             1 <1>                0.0000
     59 ****       -35.3395  14.8503   6.4278 LP             1 <1>                0.0000
@<TRIPOS>BOND
    1    1    2 2     
    2    2    3 am    
    3    3    4 1     
    4    4    5 1     
    5    5    6 1     
    6    6    7 1     
    7    7    8 1     
    8    8    9 1     
    9    9   10 1     
   10   10   11 1     
   11    6   11 1     
   12    9   12 1     
   13   12   13 ar    
   14   13   14 ar    
   15   14   15 ar    
   16   15   16 ar    
   17   16   17 ar    
   18   12   17 ar    
   19    3   18 ar    
   20   18   19 ar    
   21   19   20 ar    
   22   20   21 ar    
   23   21   22 ar    
   24   22   23 ar    
   25   18   23 ar    
   26   23   24 ar    
   27    2   24 am    
   28   24   25 1     
   29   25   26 ar    
   30   26   27 ar    
   31   27   28 ar    
   32   28   29 ar    
   33   29   30 ar    
   34   25   30 ar    
   35    4   31 1     
   36    4   32 1     
   37    5   33 1     
   38    5   34 1     
   39    7   35 1     
   40    7   36 1     
   41    8   37 1     
   42    8   38 1     
   43   10   39 1     
   44   10   40 1     
   45   11   41 1     
   46   11   42 1     
   47   13   43 1     
   48   14   44 1     
   49   15   45 1     
   50   16   46 1     
   51   17   47 1     
   52   19   48 1     
   53   20   49 1     
   54   21   50 1     
   55   22   51 1     
   56   26   52 1     
   57   27   53 1     
   58   28   54 1     
   59   29   55 1     
   60   30   56 1     
   61    1   57 1     
   62    1   58 1     
   63    6   59 1     
@<TRIPOS>SUBSTRUCTURE
      1 ****           1
@<TRIPOS>SET
LONE_PAIRS      STATIC     ATOMS    <user>   **** ""
3 57 58 59
ATOM$BLUE        STATIC     ATOMS    COLORGROUP SYSTEM
3 57 58 59
@<TRIPOS>COMMENT
> <Gold.Version>
5.5

> <Gold.Id.Protein>
ID|ID_protein|mol2

> <Gold.Protein.ActiveResidues>
 LEU18   LEU52   SER53   ALA55   VAL56   ALA57   MET59   PRO60   PHE61   VAL62  
 SER63   VAL64   LEU67   TRP72   PHE78   CYS79   VAL81   PHE82   ILE83   ALA84  
 MET85   ASP86   VAL87   MET88   CYS89   CYS90   SER93   TRP131  THR138  LEU139 
 LEU142  PHE161  GLU222  GLU225  LEU229  LYS248  THR251  THR252  GLY254  ILE255 

> <Gold.Score>
     Score     S(PLP)   S(hbond)     S(cho)   S(metal)  DE(clash)   DE(tors)     intcor
     90.14     -92.63       0.00       0.00       0.00       0.00       1.30       0.11

> <Gold.PLP.Fitness>
90.1415

> <Gold.PLP.PLP>
-92.6309

> <Gold.PLP.part.hbond>
0.0000

> <Gold.PLP.part.metal>
0.0000

> <Gold.PLP.part.buried>
-6.6729

> <Gold.PLP.part.nonpolar>
-86.1797

> <Gold.PLP.part.repulsive>
0.7149

> <Gold.PLP.ligand.clash>
0.0000

> <Gold.PLP.ligand.torsion>
1.3006

> <Gold.PLP.Chemscore.Hbond>
0.0000

> <Gold.PLP.Chemscore.CHOScore>
0.0000

> <Gold.PLP.Chemscore.Metal>
0.0000

> <Gold.PLP.Chemscore.Internal.Correction>
0.1118

