#       Name:                plp ligand
#       Creating user name   student
#       Creation time:       Mon Mar 18 16:43:58 2019


#       File generated by GOLD software.
#

@<TRIPOS>MOLECULE
plp ligand
    59    63     1
SMALL
GASTEIGER


@<TRIPOS>ATOM
      1 O            0.6852  -2.1557  -2.1071 ACCEPTOR       1 <1>               -0.2459
      2 C            0.8095  -2.5343  -0.9509 NONPOLAR       1 <1>                0.3347
      3 N            0.5134  -1.7447   0.1761 NONPOLAR       1 <1>               -0.2905
      4 C            0.1322  -0.3579   0.1216 NONPOLAR       1 <1>                0.0409
      5 C           -1.3896  -0.1612   0.0963 NONPOLAR       1 <1>                0.0172
      6 N           -1.8609   1.2272   0.0359 ACCEPTOR       1 <1>               -0.2977
      7 C           -1.3132   1.9606  -1.1281 NONPOLAR       1 <1>                0.0147
      8 C           -1.9716   3.3456  -1.2626 NONPOLAR       1 <1>                0.0250
      9 N           -1.7635   4.1056  -0.0197 NONPOLAR       1 <1>               -0.3275
     10 C           -2.2059   3.4223   1.2043 NONPOLAR       1 <1>                0.0250
     11 C           -1.5796   2.0035   1.2632 NONPOLAR       1 <1>                0.0147
     12 C           -1.3541   5.4206  -0.0332 NONPOLAR       1 <1>                0.0297
     13 C           -1.8408   6.3646   0.8813 NONPOLAR       1 <1>               -0.0407
     14 C           -1.3946   7.6913   0.8717 NONPOLAR       1 <1>               -0.0600
     15 C           -0.4409   8.1017  -0.0526 NONPOLAR       1 <1>               -0.0616
     16 C            0.0645   7.1872  -0.9670 NONPOLAR       1 <1>               -0.0600
     17 C           -0.3899   5.8659  -0.9522 NONPOLAR       1 <1>               -0.0407
     18 C            0.7221  -2.4841   1.3351 NONPOLAR       1 <1>                0.0703
     19 C            0.5417  -2.0950   2.6519 NONPOLAR       1 <1>               -0.0360
     20 C            0.8946  -2.9996   3.6479 NONPOLAR       1 <1>               -0.0597
     21 C            1.4424  -4.2457   3.3058 NONPOLAR       1 <1>               -0.0597
     22 C            1.6229  -4.6164   1.9638 NONPOLAR       1 <1>               -0.0357
     23 C            1.2137  -3.7438   0.9710 NONPOLAR       1 <1>                0.0750
     24 N            1.2453  -3.8031  -0.4487 NONPOLAR       1 <1>               -0.2608
     25 C            1.6401  -4.9094  -1.2463 NONPOLAR       1 <1>                0.0515
     26 C            2.0484  -4.7138  -2.5770 NONPOLAR       1 <1>               -0.0377
     27 C            2.4357  -5.7828  -3.3948 NONPOLAR       1 <1>               -0.0598
     28 C            2.4321  -7.0783  -2.8953 NONPOLAR       1 <1>               -0.0616
     29 C            2.0182  -7.3027  -1.5884 NONPOLAR       1 <1>               -0.0598
     30 C            1.6072  -6.2315  -0.7840 NONPOLAR       1 <1>               -0.0377
     31 H            0.5751   0.0581  -0.7894 0ÿ˜o_          1 <1>                0.0506
     32 H            0.5892   0.1662   0.9668 0ÿ˜o_          1 <1>                0.0506
     33 H           -1.8426  -0.6477   0.9701 0ÿ˜o_          1 <1>                0.0444
     34 H           -1.8060  -0.6985  -0.7664 0ÿ˜o_          1 <1>                0.0444
     35 H           -1.4823   1.3929  -2.0496 0ÿ˜o_          1 <1>                0.0442
     36 H           -0.2292   2.1063  -1.0211 0ÿ˜o_          1 <1>                0.0442
     37 H           -3.0483   3.2253  -1.4375 0ÿ˜o_          1 <1>                0.0476
     38 H           -1.5694   3.8452  -2.1496 0ÿ˜o_          1 <1>                0.0476
     39 H           -3.3002   3.3490   1.2147 0ÿ˜o_          1 <1>                0.0476
     40 H           -1.8946   3.9580   2.1086 0ÿ˜o_          1 <1>                0.0476
     41 H           -1.9770   1.4818   2.1413 0ÿ˜o_          1 <1>                0.0442
     42 H           -0.4964   2.1120   1.4108 0ÿ˜o_          1 <1>                0.0442
     43 H           -2.6044   6.0860   1.6030 0ÿ˜o_          1 <1>                0.0636
     44 H           -1.7995   8.3995   1.5883 0ÿ˜o_          1 <1>                0.0618
     45 H           -0.0911   9.1294  -0.0594 0ÿ˜o_          1 <1>                0.0618
     46 H            0.8196   7.4883  -1.6876 0ÿ˜o_          1 <1>                0.0618
     47 H            0.0603   5.1690  -1.6540 0ÿ˜o_          1 <1>                0.0636
     48 H            0.1452  -1.1181   2.9134 0ÿ˜o_          1 <1>                0.0639
     49 H            0.7690  -2.7323   4.6950 0ÿ˜o_          1 <1>                0.0618
     50 H            1.7462  -4.9292   4.0968 0ÿ˜o_          1 <1>                0.0618
     51 H            2.1138  -5.5572   1.7576 0ÿ˜o_          1 <1>                0.0639
     52 H            2.0946  -3.7196  -3.0141 0ÿ˜o_          1 <1>                0.0638
     53 H            2.7386  -5.5936  -4.4217 0ÿ˜o_          1 <1>                0.0618
     54 H            2.7332  -7.9097  -3.5264 0ÿ˜o_          1 <1>                0.0618
     55 H            1.9910  -8.3153  -1.1941 0ÿ˜o_          1 <1>                0.0618
     56 H            1.2020  -6.4835   0.1875 0ÿ˜o_          1 <1>                0.0638
     57 ****         0.3543  -1.2314  -2.2978 0ÿ˜o_          1 <1>                0.0000
     58 ****         0.9144  -2.7703  -2.8619 0ÿ˜o_          1 <1>                0.0000
     59 ****        -2.8529   1.1440  -0.0596 0ÿ˜o_          1 <1>                0.0000
@<TRIPOS>BOND
    1    1    2 2     
    2    2    3 am    
    3    3    4 1     
    4    4    5 1     
    5    5    6 1     
    6    6    7 1     
    7    7    8 1     
    8    8    9 1     
    9    9   10 1     
   10   10   11 1     
   11    6   11 1     
   12    9   12 1     
   13   12   13 ar    
   14   13   14 ar    
   15   14   15 ar    
   16   15   16 ar    
   17   16   17 ar    
   18   12   17 ar    
   19    3   18 ar    
   20   18   19 ar    
   21   19   20 ar    
   22   20   21 ar    
   23   21   22 ar    
   24   22   23 ar    
   25   18   23 ar    
   26   23   24 ar    
   27    2   24 am    
   28   24   25 1     
   29   25   26 ar    
   30   26   27 ar    
   31   27   28 ar    
   32   28   29 ar    
   33   29   30 ar    
   34   25   30 ar    
   35    4   31 1     
   36    4   32 1     
   37    5   33 1     
   38    5   34 1     
   39    7   35 1     
   40    7   36 1     
   41    8   37 1     
   42    8   38 1     
   43   10   39 1     
   44   10   40 1     
   45   11   41 1     
   46   11   42 1     
   47   13   43 1     
   48   14   44 1     
   49   15   45 1     
   50   16   46 1     
   51   17   47 1     
   52   19   48 1     
   53   20   49 1     
   54   21   50 1     
   55   22   51 1     
   56   26   52 1     
   57   27   53 1     
   58   28   54 1     
   59   29   55 1     
   60   30   56 1     
   61    1   57 1     
   62    1   58 1     
   63    6   59 1     
@<TRIPOS>SUBSTRUCTURE
      1 ****           1
@<TRIPOS>SET
LONE_PAIRS      STATIC     ATOMS    <user>   **** ""
3 57 58 59
DONOR_HYDROGENS      STATIC     ATOMS    <user>   **** ""
0
ATOM$BLUE        STATIC     ATOMS    COLORGROUP SYSTEM
3 57 58 59
ATOM$RED        STATIC     ATOMS    COLORGROUP SYSTEM
0
