#       Name:                C:\Users\porto\OneDrive\projekt\beta2\ligandy\L_4qkx.pdb L_4qkx.pdb 1
#       Creating user name   student
#       Creation time:       Mon Apr 08 16:28:16 2019


#       File generated by GOLD software.
#

@<TRIPOS>MOLECULE
C:\Users\porto\OneDrive\projekt\beta2\ligandy\L_4qkx.pdb L_4qkx.pdb 1|4qkx|mol2|1|dock68
    62    63     1
SMALL
GASTEIGER


@<TRIPOS>ATOM
      1 CAA        -34.4217   2.7709   4.7678 C.3            1 <1>                0.0790
      2 CAF        -27.0386  10.5022   6.3896 C.ar           1 <1>               -0.0162
      3 CAG        -33.4305   7.0141   7.0334 C.ar           1 <1>               -0.0548
      4 CAH        -28.3103  10.3712   6.9332 C.ar           1 <1>               -0.0524
      5 CAI        -34.3829   6.3758   7.8243 C.ar           1 <1>               -0.0160
      6 CAJ        -29.1417  12.1938   5.5839 C.ar           1 <1>               -0.0109
      7 CAK        -33.5517   5.1987   5.4499 C.ar           1 <1>               -0.0131
      8 CAL        -37.5409   4.6611   9.8519 C.3            1 <1>                0.0249
      9 CAM        -30.9357   7.5609   5.8379 C.3            1 <1>               -0.0000
     10 CAN        -36.2100   5.1992   9.3111 C.3            1 <1>                0.0985
     11 CAO        -32.0813   7.0053   4.9785 C.3            1 <1>               -0.0150
     12 CAP        -30.9129   9.5826   7.5172 C.3            1 <1>                0.0261
     13 CAT        -26.8310  11.4892   5.4399 C.ar           1 <1>                0.1582
     14 CAU        -27.8685  12.3254   5.0415 C.ar           1 <1>                0.1586
     15 CAV        -33.0074   6.4173   5.8448 C.ar           1 <1>               -0.0425
     16 CAW        -29.3475  11.2144   6.5456 C.ar           1 <1>               -0.0143
     17 CAX        -34.9093   5.1560   7.4230 C.ar           1 <1>                0.1619
     18 CAY        -34.5011   4.5709   6.2318 C.ar           1 <1>                0.1618
     19 CAZ        -30.6036  11.0330   7.1126 C.3            1 <1>                0.0927
     20 NAQ        -31.1033   8.9753   6.2005 N.3            1 <1>               -0.3129
     21 OAB        -25.6177  11.6841   4.8581 O.3            1 <1>               -0.5033
     22 OAC        -27.5741  13.2673   4.1045 O.3            1 <1>               -0.5033
     23 OAD        -31.6601  11.5345   6.2784 O.3            1 <1>               -0.3859
     24 OAR        -35.0447   3.3663   5.9130 O.3            1 <1>               -0.4914
     25 OAS        -35.8357   4.4655   8.1418 O.3            1 <1>               -0.4875
     26 SAE        -38.9409   5.7589   9.4340 S.3            1 <1>               -0.1749
     27 HAA1       -34.8921   1.8111   4.5554 H              1 <1>                0.0660
     28 HAA2       -34.5371   3.4294   3.9069 H              1 <1>                0.0660
     29 HAA3       -33.3614   2.6186   4.9685 H              1 <1>                0.0660
     30 HAF        -26.2436   9.8443   6.7097 H              1 <1>                0.0655
     31 HAG        -33.0230   7.9654   7.3410 H              1 <1>                0.0621
     32 HAH        -28.5063   9.6055   7.6689 H              1 <1>                0.0622
     33 HAI        -34.7107   6.8297   8.7478 H              1 <1>                0.0655
     34 HAJ        -29.9381  12.8439   5.2546 H              1 <1>                0.0659
     35 HAK        -33.2270   4.7445   4.5256 H              1 <1>                0.0658
     36 HAL1       -37.7244   3.6675   9.4422 H              1 <1>                0.0407
     37 HAL2       -37.4750   4.5533  10.9343 H              1 <1>                0.0407
     38 HAM1       -29.9909   7.4327   5.3083 H              1 <1>                0.0427
     39 HAM2       -30.8417   6.9639   6.7446 H              1 <1>                0.0427
     40 HAN1       -35.4379   5.0888  10.0720 H              1 <1>                0.0705
     41 HAN2       -36.3199   6.2534   9.0584 H              1 <1>                0.0705
     42 HAO1       -31.6898   6.2492   4.2980 H              1 <1>                0.0325
     43 HAO2       -32.5588   7.8222   4.4379 H              1 <1>                0.0325
     44 HAP1       -30.0303   9.1482   7.9858 H              1 <1>                0.0453
     45 HAP2       -31.8572   9.5581   8.0603 H              1 <1>                0.0453
     46 HAZ        -30.6216  11.6232   8.0284 H              1 <1>                0.0656
     47 HNAQ       -30.4688   9.5410   5.6550 H              1 <1>                0.1220
     48 HOAB       -25.2956  12.5622   5.0747 H              1 <1>                0.2923
     49 HOAC       -28.3869  13.6617   3.7800 H              1 <1>                0.2923
     50 HOAD       -32.4870  11.1120   6.5197 H              1 <1>                0.2103
     51 HSAE       -38.7213   6.3288   8.2459 H              1 <1>                0.1017
     52 ****       -32.0948   8.9605   6.0716 LP             1 <1>                0.0000
     53 ****       -25.7061  11.5971   3.8658 LP             1 <1>                0.0000
     54 ****       -24.9720  10.9995   5.1965 LP             1 <1>                0.0000
     55 ****       -27.0847  12.8396   3.3445 LP             1 <1>                0.0000
     56 ****       -26.9999  13.9764   4.5138 LP             1 <1>                0.0000
     57 ****       -31.4514  11.3355   5.3208 LP             1 <1>                0.0000
     58 ****       -31.7423  12.5232   6.4031 LP             1 <1>                0.0000
     59 ****       -34.9385   2.7497   6.6931 LP             1 <1>                0.0000
     60 ****       -36.0173   3.4942   5.7192 LP             1 <1>                0.0000
     61 ****       -36.6456   4.3135   7.5752 LP             1 <1>                0.0000
     62 ****       -35.4502   3.5843   8.4154 LP             1 <1>                0.0000
@<TRIPOS>BOND
    1    1   24 1     
    2    1   27 1     
    3    1   28 1     
    4    1   29 1     
    5    2    4 ar    
    6    2   13 ar    
    7    2   30 1     
    8    3    5 ar    
    9    3   15 ar    
   10    3   31 1     
   11    4   16 ar    
   12    4   32 1     
   13    5   17 ar    
   14    5   33 1     
   15    6   14 ar    
   16    6   16 ar    
   17    6   34 1     
   18    7   18 ar    
   19    7   15 ar    
   20    7   35 1     
   21    8   26 1     
   22    8   10 1     
   23    8   36 1     
   24    8   37 1     
   25    9   11 1     
   26    9   20 1     
   27    9   38 1     
   28    9   39 1     
   29   10   25 1     
   30   10   40 1     
   31   10   41 1     
   32   11   15 1     
   33   11   42 1     
   34   11   43 1     
   35   12   20 1     
   36   12   19 1     
   37   12   44 1     
   38   12   45 1     
   39   13   21 1     
   40   13   14 ar    
   41   14   22 1     
   42   16   19 1     
   43   17   25 1     
   44   17   18 ar    
   45   18   24 1     
   46   19   23 1     
   47   19   46 1     
   48   20   47 1     
   49   21   48 1     
   50   22   49 1     
   51   23   50 1     
   52   26   51 1     
   53   20   52 1     
   54   21   53 1     
   55   21   54 1     
   56   22   55 1     
   57   22   56 1     
   58   23   57 1     
   59   23   58 1     
   60   24   59 1     
   61   24   60 1     
   62   25   61 1     
   63   25   62 1     
@<TRIPOS>SUBSTRUCTURE
      1 ****           1
@<TRIPOS>SET
LONE_PAIRS      STATIC     ATOMS    <user>   **** ""
11 52 53 54 55 56 57 58 59 60 61 62
DONOR_HYDROGENS      STATIC     ATOMS    <user>   **** ""
4 47 48 49 50
ATOM$BLUE        STATIC     ATOMS    COLORGROUP SYSTEM
11 52 53 54 55 56 57 58 59 60 61 62
ATOM$RED        STATIC     ATOMS    COLORGROUP SYSTEM
4 47 48 49 50
@<TRIPOS>COMMENT
> <Gold.Version>
5.5

> <Gold.Id.Protein>
unknown|dok_beta2|pdb

> <Gold.Protein.RotatedTorsions>
[ 4175 4166 4165 4163 ] final  -51.43 input -179.98 | X-H torsion
[ 1294 1290 1288 1285 ] final -178.94 input -179.99 | X-H torsion
[ 4033 4024 4023 4021 ] final  -86.94 input  179.98 | X-H torsion
[ 1412 1408 1406 1403 ] final   77.56 input -179.99 | X-H torsion
[ 2830 2825 2824 2821 ] final   31.82 input -179.98 | X-H torsion
[ 2723 2714 2713 2711 ] final  -57.44 input -179.98 | X-H torsion
[ 2773 2768 2767 2764 ] final  -76.02 input  180.00 | X-H torsion

> <Gold.Protein.ActiveResidues>
 TRP109  THR110  ASP113  VAL114  VAL117  THR118  PHE193  TYR199  SER203  SER207 
 PHE208  TRP286  PHE289  PHE290  ASN293  TYR308  ASN312  TYR316 

> <Gold.Protein.RotatedAtoms>
  -33.9702    3.5985    1.6596 H   0  0  0  0  0  0  0  0  0  0  0  0  # atno 1294 bound_to 1290
  -28.3394   14.6790    2.4997 H   0  0  0  0  0  0  0  0  0  0  0  0  # atno 1412 bound_to 1408
  -25.9472    8.4166    1.9676 H   0  0  0  0  0  0  0  0  0  0  0  0  # atno 2723 bound_to 2714
  -24.3226   10.4255    3.8959 H   0  0  0  0  0  0  0  0  0  0  0  0  # atno 2773 bound_to 2768
  -23.2949   13.5724    2.6122 H   0  0  0  0  0  0  0  0  0  0  0  0  # atno 2830 bound_to 2825
  -28.0323    5.4787   11.0949 H   0  0  0  0  0  0  0  0  0  0  0  0  # atno 4033 bound_to 4024
  -36.8595    8.3271    8.5779 H   0  0  0  0  0  0  0  0  0  0  0  0  # atno 4175 bound_to 4166
  -36.1695    9.2777    7.4910 LP  0  0  0  0  0  0  0  0  0  0  0  0  # atno 4597 bound_to 4166
  -37.7245    8.8093    7.3208 LP  0  0  0  0  0  0  0  0  0  0  0  0  # atno 4598 bound_to 4166
  -35.3490    4.2707    1.2029 LP  0  0  0  0  0  0  0  0  0  0  0  0  # atno 4603 bound_to 1290
  -34.6890    4.6264    2.6536 LP  0  0  0  0  0  0  0  0  0  0  0  0  # atno 4604 bound_to 1290
  -28.3073    6.9993   11.5124 LP  0  0  0  0  0  0  0  0  0  0  0  0  # atno 4607 bound_to 4024
  -29.4018    6.1662   10.6322 LP  0  0  0  0  0  0  0  0  0  0  0  0  # atno 4608 bound_to 4024
  -27.0833   15.2135    3.3349 LP  0  0  0  0  0  0  0  0  0  0  0  0  # atno 4611 bound_to 1408
  -26.9000   14.6866    1.8002 LP  0  0  0  0  0  0  0  0  0  0  0  0  # atno 4612 bound_to 1408
  -24.7194   14.0004    2.0225 LP  0  0  0  0  0  0  0  0  0  0  0  0  # atno 4613 bound_to 2825
  -24.5847   12.7232    3.0310 LP  0  0  0  0  0  0  0  0  0  0  0  0  # atno 4614 bound_to 2825

> <Gold.Score>
     Score         DG    S(hbond)    S(metal)    S(lipo)     H(rot)  DE(clash)    DE(int)     intcor
     33.26     -35.73       2.28        0.00     290.84       4.45       0.64       1.83       0.27

> <Gold.Chemscore.Fitness>
33.2634

> <Gold.Chemscore.DG>
-35.7341

> <Gold.Chemscore.ZeroCoef>
-5.4800

> <Gold.Chemscore.Hbond>
2.2813

> <Gold.Chemscore.Metal>
0.0000

> <Gold.Chemscore.Lipo>
290.8410

> <Gold.Chemscore.Internal_Hbond>
0.0000

> <Gold.Chemscore.DEClash>
0.6434

> <Gold.Chemscore.DEInternal>
1.8273

> <Gold.Chemscore.Rot>
4.4507

> <Gold.Chemscore.Internal.Correction>
0.2717

> <Gold.Chemscore.Hbonds>
donor molecule, donor type, donor heavy atom, donor atom, acceptor molecule, acceptor atom, score
      L1  H    22    49       P1  1343  0.78
      L1  H    23    50       P1  1334  0.60
      P1  H  2768  2773       L1    21  0.90

> <Gold.Chemscore.Hbond.Weighted>
-7.6195

> <Gold.Chemscore.Metal.Weighted>
-0.0000

> <Gold.Chemscore.Lipo.Weighted>
-34.0284

> <Gold.Chemscore.Internal_Hbond.Weighted>
0.0000

> <Gold.Chemscore.DEClash.Weighted>
0.6434

> <Gold.Chemscore.DEInternal.Weighted>
1.8273

> <Gold.Chemscore.Rot.Weighted>
11.3938

> <Gold.Chemscore.Internal.Correction.Weighted>
0.2717

