#       Name:                C:\Users\porto\OneDrive\projekt\beta2\ligandy\L_3ny8.pdb L_3ny8.pdb 1
#       Creating user name   student
#       Creation time:       Mon Apr 08 15:10:53 2019


#       File generated by GOLD software.
#

@<TRIPOS>MOLECULE
C:\Users\porto\OneDrive\projekt\beta2\ligandy\L_3ny8.pdb L_3ny8.pdb 1|3ny8|mol2|1|dock1
    52    53     1
SMALL
GASTEIGER


@<TRIPOS>ATOM
      1 C1         -26.5229  10.8913   5.7383 C.3            1 <1>               -0.0268
      2 N1         -34.4370   6.5275   8.0140 N.3            1 <1>               -0.3087
      3 O1         -30.3562   8.3398   7.3046 O.3            1 <1>               -0.4891
      4 C2         -26.3391   9.4034   5.6030 C.3            1 <1>               -0.0449
      5 O2         -31.9823   6.4072   9.1876 O.3            1 <1>               -0.3869
      6 C3         -27.3363   8.7342   6.5240 C.3            1 <1>               -0.0237
      7 C4         -28.5042   9.7522   6.5193 C.ar           1 <1>               -0.0023
      8 C5         -28.0243  10.9887   6.0636 C.ar           1 <1>               -0.0378
      9 C6         -28.9000  12.0588   5.9254 C.ar           1 <1>               -0.0468
     10 C7         -28.3851  13.3924   5.4017 C.3            1 <1>               -0.0394
     11 C8         -30.2451  11.9224   6.2497 C.ar           1 <1>               -0.0551
     12 C9         -30.7339  10.6949   6.6939 C.ar           1 <1>               -0.0194
     13 C10        -29.8687   9.5974   6.8128 C.ar           1 <1>                0.1241
     14 C11        -31.7556   8.0823   7.4679 C.3            1 <1>                0.1169
     15 C12        -31.9935   6.5807   7.7886 C.3            1 <1>                0.1041
     16 C13        -33.3301   6.0458   7.1915 C.3            1 <1>                0.0342
     17 C14        -33.5399   6.5564   5.7721 C.3            1 <1>               -0.0472
     18 C15        -35.0802   5.4920   8.8014 C.3            1 <1>                0.0023
     19 C16        -36.3828   6.0388   9.3659 C.3            1 <1>               -0.0499
     20 C17        -35.4153   4.3003   7.9104 C.3            1 <1>               -0.0499
     21 H11        -26.3345  11.3644   4.7742 H              1 <1>                0.0313
     22 H12        -25.9478  11.2473   6.5931 H              1 <1>                0.0313
     23 HN1        -34.0979   7.2253   8.6601 H              1 <1>                0.1225
     24 H21        -25.3277   9.1333   5.9067 H              1 <1>                0.0272
     25 H22        -26.5386   9.1054   4.5738 H              1 <1>                0.0272
     26 HO2        -32.5553   7.0599   9.5961 H              1 <1>                0.2100
     27 H31        -26.9145   8.6777   7.5272 H              1 <1>                0.0314
     28 H32        -27.6725   7.8014   6.0704 H              1 <1>                0.0314
     29 H71        -29.2062  14.1085   5.3611 H              1 <1>                0.0278
     30 H72        -27.6082  13.7685   6.0662 H              1 <1>                0.0278
     31 H73        -27.9725  13.2555   4.4020 H              1 <1>                0.0278
     32 H8         -30.9110  12.7678   6.1574 H              1 <1>                0.0621
     33 H9         -31.7791  10.5892   6.9467 H              1 <1>                0.0654
     34 H111       -32.2829   8.3451   6.5511 H              1 <1>                0.0723
     35 H112       -32.1453   8.6937   8.2824 H              1 <1>                0.0723
     36 H12        -31.1721   6.0038   7.3637 H              1 <1>                0.0643
     37 H13        -33.3215   4.9559   7.1910 H              1 <1>                0.0484
     38 H141       -32.7252   6.2100   5.1367 H              1 <1>                0.0245
     39 H142       -34.4865   6.1793   5.3863 H              1 <1>                0.0245
     40 H143       -33.5578   7.6464   5.7764 H              1 <1>                0.0245
     41 H15        -34.4243   5.1781   9.6133 H              1 <1>                0.0455
     42 H161       -36.8737   5.2681   9.9597 H              1 <1>                0.0245
     43 H162       -36.1723   6.9024   9.9960 H              1 <1>                0.0245
     44 H163       -37.0372   6.3383   8.5466 H              1 <1>                0.0245
     45 H171       -35.8979   3.5246   8.5060 H              1 <1>                0.0245
     46 H172       -36.0889   4.6185   7.1149 H              1 <1>                0.0245
     47 H173       -34.4991   3.9041   7.4732 H              1 <1>                0.0245
     48 ****       -35.1111   6.8925   7.3719 LP             1 <1>                0.0000
     49 ****       -29.9403   8.2106   8.2048 LP             1 <1>                0.0000
     50 ****       -30.0141   7.6413   6.6760 LP             1 <1>                0.0000
     51 ****       -31.0498   6.5216   9.5301 LP             1 <1>                0.0000
     52 ****       -32.3097   5.4894   9.4122 LP             1 <1>                0.0000
@<TRIPOS>BOND
    1    1    4 1     
    2    1    8 1     
    3    1   21 1     
    4    1   22 1     
    5    2   16 1     
    6    2   18 1     
    7    2   23 1     
    8    3   13 1     
    9    3   14 1     
   10    4    6 1     
   11    4   24 1     
   12    4   25 1     
   13    5   15 1     
   14    5   26 1     
   15    6    7 1     
   16    6   27 1     
   17    6   28 1     
   18    7    8 ar    
   19    7   13 ar    
   20    8    9 ar    
   21    9   10 1     
   22    9   11 ar    
   23   10   29 1     
   24   10   30 1     
   25   10   31 1     
   26   11   12 ar    
   27   11   32 1     
   28   12   13 ar    
   29   12   33 1     
   30   14   15 1     
   31   14   34 1     
   32   14   35 1     
   33   15   16 1     
   34   15   36 1     
   35   16   17 1     
   36   16   37 1     
   37   17   38 1     
   38   17   39 1     
   39   17   40 1     
   40   18   19 1     
   41   18   20 1     
   42   18   41 1     
   43   19   42 1     
   44   19   43 1     
   45   19   44 1     
   46   20   45 1     
   47   20   46 1     
   48   20   47 1     
   49    2   48 1     
   50    3   49 1     
   51    3   50 1     
   52    5   51 1     
   53    5   52 1     
@<TRIPOS>SUBSTRUCTURE
      1 ****           1
@<TRIPOS>SET
LONE_PAIRS      STATIC     ATOMS    <user>   **** ""
5 48 49 50 51 52
DONOR_HYDROGENS      STATIC     ATOMS    <user>   **** ""
2 23 26
ATOM$BLUE        STATIC     ATOMS    COLORGROUP SYSTEM
5 48 49 50 51 52
ATOM$RED        STATIC     ATOMS    COLORGROUP SYSTEM
2 23 26
@<TRIPOS>COMMENT
> <Gold.Version>
5.5

> <Gold.Id.Protein>
unknown|dok_beta2|pdb

> <Gold.Protein.RotatedTorsions>
[ 4175 4166 4165 4163 ] final  111.15 input -179.98 | X-H torsion
[ 1294 1290 1288 1285 ] final  146.19 input -179.99 | X-H torsion
[ 4033 4024 4023 4021 ] final  117.76 input  179.98 | X-H torsion
[ 1412 1408 1406 1403 ] final  106.29 input -179.99 | X-H torsion
[ 2830 2825 2824 2821 ] final   37.17 input -179.98 | X-H torsion
[ 2723 2714 2713 2711 ] final    0.40 input -179.98 | X-H torsion
[ 2773 2768 2767 2764 ] final   21.29 input  180.00 | X-H torsion

> <Gold.Protein.ActiveResidues>
 TRP109  THR110  ASP113  VAL114  VAL117  THR118  PHE193  TYR199  SER203  SER207 
 PHE208  TRP286  PHE289  PHE290  ASN293  TYR308  ASN312  TYR316 

> <Gold.Protein.RotatedAtoms>
  -34.3023    3.5872    1.2311 H   0  0  0  0  0  0  0  0  0  0  0  0  # atno 1294 bound_to 1290
  -28.1817   14.5615    2.0960 H   0  0  0  0  0  0  0  0  0  0  0  0  # atno 1412 bound_to 1408
  -26.1442    7.9616    1.2463 H   0  0  0  0  0  0  0  0  0  0  0  0  # atno 2723 bound_to 2714
  -23.6714   10.8695    2.7894 H   0  0  0  0  0  0  0  0  0  0  0  0  # atno 2773 bound_to 2768
  -23.2918   13.5058    2.6641 H   0  0  0  0  0  0  0  0  0  0  0  0  # atno 2830 bound_to 2825
  -28.8176    7.0521   11.2841 H   0  0  0  0  0  0  0  0  0  0  0  0  # atno 4033 bound_to 4024
  -37.2346    9.1824    7.0525 H   0  0  0  0  0  0  0  0  0  0  0  0  # atno 4175 bound_to 4166
  -37.4772    8.2453    8.3268 LP  0  0  0  0  0  0  0  0  0  0  0  0  # atno 4597 bound_to 4166
  -36.0258    8.9502    8.0752 LP  0  0  0  0  0  0  0  0  0  0  0  0  # atno 4598 bound_to 4166
  -35.4702    4.5999    1.6457 LP  0  0  0  0  0  0  0  0  0  0  0  0  # atno 4603 bound_to 1290
  -34.2218    4.3089    2.6574 LP  0  0  0  0  0  0  0  0  0  0  0  0  # atno 4604 bound_to 1290
  -29.1479    5.6576   10.5710 LP  0  0  0  0  0  0  0  0  0  0  0  0  # atno 4607 bound_to 4024
  -27.7432    5.8692   11.3765 LP  0  0  0  0  0  0  0  0  0  0  0  0  # atno 4608 bound_to 4024
  -27.5379   15.1616    3.4327 LP  0  0  0  0  0  0  0  0  0  0  0  0  # atno 4611 bound_to 1408
  -26.6098   14.8609    2.1231 LP  0  0  0  0  0  0  0  0  0  0  0  0  # atno 4612 bound_to 1408
  -24.6455   14.0435    2.0018 LP  0  0  0  0  0  0  0  0  0  0  0  0  # atno 4613 bound_to 2825
  -24.6618   12.7494    2.9976 LP  0  0  0  0  0  0  0  0  0  0  0  0  # atno 4614 bound_to 2825

> <Gold.Score>
     Score     S(PLP)   S(hbond)     S(cho)   S(metal)  DE(clash)   DE(tors)     intcor
     67.69     -64.21       2.00       0.00       0.00       0.00       1.53       0.54

> <Gold.PLP.Fitness>
67.6928

> <Gold.PLP.PLP>
-64.2120

> <Gold.PLP.part.hbond>
-2.0000

> <Gold.PLP.part.metal>
0.0000

> <Gold.PLP.part.buried>
-6.6485

> <Gold.PLP.part.nonpolar>
-57.1830

> <Gold.PLP.part.repulsive>
0.0136

> <Gold.PLP.ligand.clash>
0.0000

> <Gold.PLP.ligand.torsion>
1.5306

> <Gold.PLP.Chemscore.Hbond>
2.0000

> <Gold.PLP.Chemscore.CHOScore>
0.0000

> <Gold.PLP.Chemscore.Metal>
0.0000

> <Gold.Chemscore.Hbonds>
donor molecule, donor type, donor heavy atom, donor atom, acceptor molecule, acceptor atom, score
      L1  H     2    23       P1  4098  1.00
      L1  H     5    26       P1  4098  1.00

> <Gold.PLP.Chemscore.Internal.Correction>
0.5419

