#       Name:                C:\Users\porto\OneDrive\projekt\beta1\ligandy\L_6h7m.pdb L_6h7m.pdb 1
#       Creating user name   student
#       Creation time:       Mon Apr 08 14:36:57 2019


#       File generated by GOLD software.
#

@<TRIPOS>MOLECULE
C:\Users\porto\OneDrive\projekt\beta1\ligandy\L_6h7m.pdb L_6h7m.pdb 1|6h7m|mol2|1|dock1
    45    45     1
SMALL
GASTEIGER


@<TRIPOS>ATOM
      1 C1         -23.9859   5.5565  16.4458 C.3            1 <1>                0.0926
      2 N1         -22.9957   7.3422  17.8255 N.3            1 <1>               -0.3086
      3 O1         -23.0834   2.9130  11.4988 O.3            1 <1>               -0.5064
      4 C2         -24.2830   5.6371  11.4570 C.3            1 <1>                0.0727
      5 O2         -23.1768   6.3129  10.8325 O.3            1 <1>               -0.3903
      6 C3         -22.9744   6.6953  16.5245 C.3            1 <1>                0.0266
      7 O3         -23.9172   4.7261  17.6116 O.3            1 <1>               -0.3859
      8 C4         -22.4518   8.6835  18.0235 C.3            1 <1>                0.0108
      9 C5         -23.2974   9.6880  17.2060 C.3            1 <1>               -0.0473
     10 C6         -20.9736   8.7195  17.5903 C.3            1 <1>               -0.0473
     11 C7         -22.5410   8.9953  19.5274 C.3            1 <1>               -0.0473
     12 C8         -23.7411   4.8386  15.1599 C.ar           1 <1>               -0.0174
     13 C9         -23.1822   3.5596  15.1107 C.ar           1 <1>               -0.0526
     14 C10        -22.9715   2.9195  13.8868 C.ar           1 <1>               -0.0195
     15 C11        -23.2991   3.5468  12.6798 C.ar           1 <1>                0.1222
     16 C12        -23.8834   4.9066  12.7201 C.ar           1 <1>                0.0195
     17 C13        -24.0818   5.4991  13.9652 C.ar           1 <1>               -0.0472
     18 H1         -24.9827   5.9947  16.4024 H              1 <1>                0.0656
     19 HN1        -22.5012   6.6870  18.4139 H              1 <1>                0.1225
     20 HO1        -23.3618   3.4793  10.7758 H              1 <1>                0.2921
     21 H21        -25.0646   6.3602  11.6888 H              1 <1>                0.0608
     22 H22        -24.7203   4.9293  10.7524 H              1 <1>                0.0608
     23 HO2        -23.4802   6.7595  10.0385 H              1 <1>                0.2098
     24 H31        -23.1943   7.4307  15.7507 H              1 <1>                0.0453
     25 H32        -21.9752   6.3066  16.3285 H              1 <1>                0.0453
     26 HO3        -24.5617   4.0180  17.5393 H              1 <1>                0.2103
     27 H51        -22.9023  10.6941  17.3447 H              1 <1>                0.0247
     28 H52        -23.2551   9.4242  16.1488 H              1 <1>                0.0247
     29 H53        -24.3320   9.6545  17.5472 H              1 <1>                0.0247
     30 H61        -20.5748   9.7227  17.7409 H              1 <1>                0.0247
     31 H62        -20.4019   8.0088  18.1873 H              1 <1>                0.0247
     32 H63        -20.8965   8.4522  16.5361 H              1 <1>                0.0247
     33 H71        -22.1435   9.9919  19.7163 H              1 <1>                0.0247
     34 H72        -23.5827   8.9535  19.8460 H              1 <1>                0.0247
     35 H73        -21.9608   8.2608  20.0860 H              1 <1>                0.0247
     36 H9         -22.9080   3.0545  16.0250 H              1 <1>                0.0622
     37 H10        -22.5496   1.9253  13.8632 H              1 <1>                0.0654
     38 H13        -24.5090   6.4904  13.9990 H              1 <1>                0.0626
     39 ****       -23.9575   7.5350  18.0200 LP             1 <1>                0.0000
     40 ****       -23.6081   2.0621  11.4766 LP             1 <1>                0.0000
     41 ****       -22.1095   2.7067  11.4045 LP             1 <1>                0.0000
     42 ****       -22.4723   5.6456  10.5907 LP             1 <1>                0.0000
     43 ****       -22.7955   6.9848  11.4675 LP             1 <1>                0.0000
     44 ****       -24.1150   5.2750  18.4237 LP             1 <1>                0.0000
     45 ****       -23.0000   4.3352  17.6887 LP             1 <1>                0.0000
@<TRIPOS>BOND
    1    1    6 1     
    2    1    7 1     
    3    1   12 1     
    4    1   18 1     
    5    2    8 1     
    6    2    6 1     
    7    2   19 1     
    8    3   15 1     
    9    3   20 1     
   10    4   16 1     
   11    4    5 1     
   12    4   21 1     
   13    4   22 1     
   14    5   23 1     
   15    6   24 1     
   16    6   25 1     
   17    7   26 1     
   18    8    9 1     
   19    8   10 1     
   20    8   11 1     
   21    9   27 1     
   22    9   28 1     
   23    9   29 1     
   24   10   30 1     
   25   10   31 1     
   26   10   32 1     
   27   11   33 1     
   28   11   34 1     
   29   11   35 1     
   30   12   13 ar    
   31   12   17 ar    
   32   13   14 ar    
   33   13   36 1     
   34   14   15 ar    
   35   14   37 1     
   36   15   16 ar    
   37   16   17 ar    
   38   17   38 1     
   39    2   39 1     
   40    3   40 1     
   41    3   41 1     
   42    5   42 1     
   43    5   43 1     
   44    7   44 1     
   45    7   45 1     
@<TRIPOS>SUBSTRUCTURE
      1 ****           1
@<TRIPOS>SET
LONE_PAIRS      STATIC     ATOMS    <user>   **** ""
7 39 40 41 42 43 44 45
DONOR_HYDROGENS      STATIC     ATOMS    <user>   **** ""
4 19 20 23 26
ATOM$BLUE        STATIC     ATOMS    COLORGROUP SYSTEM
7 39 40 41 42 43 44 45
ATOM$RED        STATIC     ATOMS    COLORGROUP SYSTEM
4 19 20 23 26
@<TRIPOS>COMMENT
> <Gold.Version>
5.5

> <Gold.Id.Protein>
unknown|bialko_beta1|pdb

> <Gold.Protein.ActiveResidues>
 ALA86   ASP87   VAL90   VAL94   VAL95   GLY98   ALA99   LEU101  VAL102  CYS114 
 GLU115  TRP117  THR118  SER119  LEU120  ASP121  VAL122  CYS124  VAL125  THR126 
 SER128  SER173  PHE174  ILE177  CYS199  ASP200  PHE201  TYR207  SER215  PHE299 
 TRP303  PHE306  PHE307  ASN310  PHE325  VAL326  ASN329  TRP330  GLY332  TYR333 
 SER336 

> <Gold.Score>
     Score     S(PLP)   S(hbond)     S(cho)   S(metal)  DE(clash)   DE(tors)     intcor
     54.04     -54.04       0.00       0.00       0.00       0.00       0.00       0.00

> <Gold.PLP.Fitness>
54.0440

> <Gold.PLP.PLP>
-54.0440

> <Gold.PLP.part.hbond>
-3.6363

> <Gold.PLP.part.metal>
0.0000

> <Gold.PLP.part.buried>
-6.0985

> <Gold.PLP.part.nonpolar>
-43.8613

> <Gold.PLP.part.repulsive>
0.0000

> <Gold.PLP.ligand.clash>
0.0000

> <Gold.PLP.ligand.torsion>
0.0000

> <Gold.PLP.Chemscore.Hbond>
0.0000

> <Gold.PLP.Chemscore.CHOScore>
0.0000

> <Gold.PLP.Chemscore.Metal>
0.0000

> <Gold.PLP.Chemscore.Internal.Correction>
0.0000

