#       Name:                C:\Users\porto\OneDrive\projekt\beta2\ligandy\L_4lde.pdb L_4lde.pdb 1
#       Creating user name   student
#       Creation time:       Mon Apr 01 15:49:15 2019


#       File generated by GOLD software.
#

@<TRIPOS>MOLECULE
C:\Users\porto\OneDrive\projekt\beta2\ligandy\L_4lde.pdb L_4lde.pdb 1|4lde|mol2|1|dock3
    62    64     1
SMALL
GASTEIGER


@<TRIPOS>ATOM
      1 CAA        -36.2210   5.7241  10.8189 C.3            1 <1>               -0.0395
      2 CAB        -33.7372   5.9679   6.0284 C.3            1 <1>               -0.0467
      3 CAC        -32.6343   5.8612   8.2641 C.3            1 <1>               -0.0467
      4 CAG        -35.4832   2.2026   9.7038 C.ar           1 <1>               -0.0615
      5 CAH        -34.9903   2.3938   8.4180 C.ar           1 <1>               -0.0615
      6 CAI        -35.8779   3.2882  10.4743 C.ar           1 <1>               -0.0586
      7 CAJ        -34.8845   3.6745   7.9074 C.ar           1 <1>               -0.0583
      8 CAK        -29.9987  12.3926   6.3044 C.ar           1 <1>               -0.0178
      9 CAL        -31.0134  11.6532   6.9063 C.ar           1 <1>               -0.0490
     10 CAM        -27.9602   8.0711   7.5218 C.3            1 <1>                0.1656
     11 CAN        -32.3502   8.4075   6.9468 C.3            1 <1>                0.0267
     12 CAO        -35.1629   6.1516   8.0751 C.3            1 <1>               -0.0096
     13 CAS        -26.9586   8.8112   6.6555 C.2            1 <1>                0.2550
     14 CAT        -35.7799   4.5712   9.9570 C.ar           1 <1>               -0.0472
     15 CAU        -28.7830  11.7928   5.9983 C.ar           1 <1>                0.1416
     16 CAV        -35.2957   4.7660   8.6681 C.ar           1 <1>               -0.0427
     17 CAW        -30.8196  10.3088   7.2043 C.ar           1 <1>                0.0258
     18 CAX        -28.5822  10.4608   6.3001 C.ar           1 <1>                0.1180
     19 CAY        -29.5892   9.7216   6.8989 C.ar           1 <1>                0.1515
     20 CAZ        -31.9180   9.5454   7.8557 C.3            1 <1>                0.0960
     21 NAP        -33.6185   7.8924   7.4174 N.3            1 <1>               -0.3080
     22 NAQ        -27.4019   9.8747   5.9922 N.am           1 <1>               -0.2769
     23 OAD        -25.7989   8.4352   6.5807 O.2            1 <1>               -0.2717
     24 OAE        -27.7833  12.5085   5.4087 O.3            1 <1>               -0.5048
     25 OAF        -33.0723  10.3655   8.1005 O.3            1 <1>               -0.3858
     26 OAR        -29.3026   8.4075   7.1541 O.3            1 <1>               -0.4804
     27 CBA        -33.7919   6.4560   7.4706 C.3            1 <1>                0.0176
     28 HAA1       -36.0826   6.6582  10.2753 H              1 <1>                0.0278
     29 HAA2       -37.2736   5.6053  11.0751 H              1 <1>                0.0278
     30 HAA3       -35.6258   5.7444  11.7318 H              1 <1>                0.0278
     31 HAB1       -34.5675   6.3967   5.4670 H              1 <1>                0.0247
     32 HAB2       -32.7951   6.2764   5.5749 H              1 <1>                0.0247
     33 HAB3       -33.8101   4.8804   6.0091 H              1 <1>                0.0247
     34 HAC1       -32.6799   6.2145   9.2942 H              1 <1>                0.0247
     35 HAC2       -32.7046   4.7737   8.2497 H              1 <1>                0.0247
     36 HAC3       -31.6895   6.1700   7.8165 H              1 <1>                0.0247
     37 HAG        -35.5614   1.2047  10.1097 H              1 <1>                0.0618
     38 HAH        -34.6913   1.5442   7.8221 H              1 <1>                0.0618
     39 HAI        -36.2597   3.1317  11.4724 H              1 <1>                0.0620
     40 HAJ        -34.4829   3.8288   6.9170 H              1 <1>                0.0620
     41 HAK        -30.1546  13.4362   6.0737 H              1 <1>                0.0655
     42 HAL        -31.9563  12.1235   7.1435 H              1 <1>                0.0623
     43 HAM1       -27.7951   8.3287   8.5678 H              1 <1>                0.0795
     44 HAM2       -27.8122   6.9967   7.4113 H              1 <1>                0.0795
     45 HAN1       -31.6028   7.6144   6.9768 H              1 <1>                0.0453
     46 HAN2       -32.4645   8.7798   5.9282 H              1 <1>                0.0453
     47 HAO1       -35.3933   6.8944   8.8389 H              1 <1>                0.0331
     48 HAO2       -35.9315   6.2950   7.3160 H              1 <1>                0.0331
     49 HAZ        -31.5603   9.1354   8.8005 H              1 <1>                0.0657
     50 HNAP       -33.7821   8.2114   8.3617 H              1 <1>                0.1225
     51 HNAQ       -26.8541  10.2639   5.2378 H              1 <1>                0.1551
     52 HOAE       -27.0046  11.9551   5.3169 H              1 <1>                0.2922
     53 HOAF       -33.3397  10.7947   7.2837 H              1 <1>                0.2103
     54 ****       -34.2544   8.2351   6.7258 LP             1 <1>                0.0000
     55 ****       -25.5000   7.6308   7.0941 LP             1 <1>                0.0000
     56 ****       -25.1484   8.9318   6.0061 LP             1 <1>                0.0000
     57 ****       -27.5629  13.3025   5.9753 LP             1 <1>                0.0000
     58 ****       -28.0818  12.8163   4.5053 LP             1 <1>                0.0000
     59 ****       -32.8487  11.0601   8.7842 LP             1 <1>                0.0000
     60 ****       -33.8211   9.7948   8.4376 LP             1 <1>                0.0000
     61 ****       -29.8982   8.1130   7.9015 LP             1 <1>                0.0000
     62 ****       -29.5234   7.8891   6.3279 LP             1 <1>                0.0000
@<TRIPOS>BOND
    1    1   14 1     
    2    1   28 1     
    3    1   29 1     
    4    1   30 1     
    5    2   27 1     
    6    2   31 1     
    7    2   32 1     
    8    2   33 1     
    9    3   27 1     
   10    3   34 1     
   11    3   35 1     
   12    3   36 1     
   13    4    5 ar    
   14    4    6 ar    
   15    4   37 1     
   16    5    7 ar    
   17    5   38 1     
   18    6   14 ar    
   19    6   39 1     
   20    7   16 ar    
   21    7   40 1     
   22    8    9 ar    
   23    8   15 ar    
   24    8   41 1     
   25    9   17 ar    
   26    9   42 1     
   27   10   13 1     
   28   10   26 1     
   29   10   43 1     
   30   10   44 1     
   31   11   20 1     
   32   11   21 1     
   33   11   45 1     
   34   11   46 1     
   35   12   16 1     
   36   12   27 1     
   37   12   47 1     
   38   12   48 1     
   39   13   22 am    
   40   13   23 2     
   41   14   16 ar    
   42   15   18 ar    
   43   15   24 1     
   44   17   19 ar    
   45   17   20 1     
   46   18   19 ar    
   47   18   22 1     
   48   19   26 1     
   49   20   25 1     
   50   20   49 1     
   51   21   27 1     
   52   21   50 1     
   53   22   51 1     
   54   24   52 1     
   55   25   53 1     
   56   21   54 1     
   57   23   55 1     
   58   23   56 1     
   59   24   57 1     
   60   24   58 1     
   61   25   59 1     
   62   25   60 1     
   63   26   61 1     
   64   26   62 1     
@<TRIPOS>SUBSTRUCTURE
      1 ****           1
@<TRIPOS>SET
LONE_PAIRS      STATIC     ATOMS    <user>   **** ""
9 54 55 56 57 58 59 60 61 62
DONOR_HYDROGENS      STATIC     ATOMS    <user>   **** ""
4 50 51 52 53
ATOM$BLUE        STATIC     ATOMS    COLORGROUP SYSTEM
9 54 55 56 57 58 59 60 61 62
ATOM$RED        STATIC     ATOMS    COLORGROUP SYSTEM
4 50 51 52 53
@<TRIPOS>COMMENT
> <Gold.Version>
5.5

> <Gold.Id.Protein>
unknown|dok_beta2|pdb

> <Gold.Protein.RotatedTorsions>
[ 4175 4166 4165 4163 ] final -154.01 input -179.98 | X-H torsion
[ 1294 1290 1288 1285 ] final   24.50 input -179.99 | X-H torsion
[ 4033 4024 4023 4021 ] final   -7.93 input  179.98 | X-H torsion
[ 1412 1408 1406 1403 ] final  -10.76 input -179.99 | X-H torsion
[ 2830 2825 2824 2821 ] final  170.61 input -179.98 | X-H torsion
[ 2723 2714 2713 2711 ] final -162.71 input -179.98 | X-H torsion
[ 2773 2768 2767 2764 ] final  133.95 input  180.00 | X-H torsion

> <Gold.Protein.ActiveResidues>
 TRP109  THR110  ASP113  VAL114  VAL117  THR118  PHE193  TYR199  SER203  SER207 
 PHE208  TRP286  PHE289  PHE290  ASN293  TYR308  ASN312  TYR316 

> <Gold.Protein.RotatedAtoms>
  -35.4296    4.6036    1.6718 H   0  0  0  0  0  0  0  0  0  0  0  0  # atno 1294 bound_to 1290
  -27.5823   15.1514    3.3903 H   0  0  0  0  0  0  0  0  0  0  0  0  # atno 1412 bound_to 1408
  -26.6999    7.6425    2.9178 H   0  0  0  0  0  0  0  0  0  0  0  0  # atno 2723 bound_to 2714
  -24.3580    9.6017    2.3545 H   0  0  0  0  0  0  0  0  0  0  0  0  # atno 2773 bound_to 2768
  -24.8110   12.8727    2.8935 H   0  0  0  0  0  0  0  0  0  0  0  0  # atno 2830 bound_to 2825
  -29.0686    5.6108   10.6097 H   0  0  0  0  0  0  0  0  0  0  0  0  # atno 4033 bound_to 4024
  -36.0916    9.1618    7.7369 H   0  0  0  0  0  0  0  0  0  0  0  0  # atno 4175 bound_to 4166
  -37.5694    8.9779    7.1509 LP  0  0  0  0  0  0  0  0  0  0  0  0  # atno 4597 bound_to 4166
  -37.1251    8.2389    8.5377 LP  0  0  0  0  0  0  0  0  0  0  0  0  # atno 4598 bound_to 4166
  -34.2019    4.2909    2.6496 LP  0  0  0  0  0  0  0  0  0  0  0  0  # atno 4603 bound_to 1290
  -34.3153    3.5588    1.1943 LP  0  0  0  0  0  0  0  0  0  0  0  0  # atno 4604 bound_to 1290
  -27.7286    5.9530   11.4157 LP  0  0  0  0  0  0  0  0  0  0  0  0  # atno 4607 bound_to 4024
  -28.9011    7.0750   11.2343 LP  0  0  0  0  0  0  0  0  0  0  0  0  # atno 4608 bound_to 4024
  -26.5910   14.8794    2.1637 LP  0  0  0  0  0  0  0  0  0  0  0  0  # atno 4611 bound_to 1408
  -28.1813   14.5284    2.0434 LP  0  0  0  0  0  0  0  0  0  0  0  0  # atno 4612 bound_to 1408
  -23.2798   13.3253    2.7890 LP  0  0  0  0  0  0  0  0  0  0  0  0  # atno 4613 bound_to 2825
  -24.4436   14.1276    1.9713 LP  0  0  0  0  0  0  0  0  0  0  0  0  # atno 4614 bound_to 2825

> <Gold.Score>
     Score     S(PLP)   S(hbond)     S(cho)   S(metal)  DE(clash)   DE(tors)     intcor
     80.52     -74.80       2.88       0.00       0.00       1.58       0.92       0.50

> <Gold.PLP.Fitness>
80.5196

> <Gold.PLP.PLP>
-74.7979

> <Gold.PLP.part.hbond>
-4.5489

> <Gold.PLP.part.metal>
0.0000

> <Gold.PLP.part.buried>
-10.7567

> <Gold.PLP.part.nonpolar>
-61.0482

> <Gold.PLP.part.repulsive>
0.0337

> <Gold.PLP.ligand.clash>
1.5817

> <Gold.PLP.ligand.torsion>
0.9172

> <Gold.PLP.Chemscore.Hbond>
2.8800

> <Gold.PLP.Chemscore.CHOScore>
0.0000

> <Gold.PLP.Chemscore.Metal>
0.0000

> <Gold.Chemscore.Hbonds>
donor molecule, donor type, donor heavy atom, donor atom, acceptor molecule, acceptor atom, score
      L1  H    21    50       P1  4098  1.00
      L1  H    25    53       P1  1334  1.00
      P1  H  4097  4104       L1    25  0.88

> <Gold.PLP.Chemscore.Internal.Correction>
0.4978

