#       Name:                *****
#       Creating user name   student
#       Creation time:       Mon Mar 18 16:46:05 2019


#       File generated by GOLD software.
#

@<TRIPOS>MOLECULE
*****|CHEMBL3546104|mol2|1|dock4
    61    64     1
SMALL
GASTEIGER


@<TRIPOS>ATOM
      1 C          -37.7726   6.7102   2.1936 C.3            1 <1>                0.0196
      2 N          -38.2931   7.1865   3.4573 N.am           1 <1>               -0.2622
      3 C          -38.8935   6.2616   4.3350 C.ar           1 <1>                0.3331
      4 O          -38.9806   5.0652   4.0450 O.2            1 <1>               -0.2462
      5 N          -39.3855   6.7560   5.5453 N.am           1 <1>               -0.2796
      6 C          -40.0205   5.8740   6.5072 C.3            1 <1>                0.0181
      7 C          -39.2731   8.0962   5.8212 C.ar           1 <1>                0.1678
      8 N          -39.7097   8.7244   6.9492 N.ar           1 <1>               -0.2177
      9 C          -39.3952   9.9894   6.7603 C.ar           1 <1>                0.0989
     10 N          -38.7695  10.1765   5.5549 N.pl3          1 <1>               -0.3246
     11 C          -38.3134  11.4451   5.0328 C.3            1 <1>                0.0249
     12 C          -38.3933  12.5545   6.0788 C.3            1 <1>               -0.0349
     13 C          -37.4630  13.7220   5.7532 C.3            1 <1>               -0.0503
     14 C          -37.2762  14.7266   6.8936 C.3            1 <1>               -0.0401
     15 C          -36.0746  15.6596   6.6800 C.3            1 <1>               -0.0008
     16 N          -36.4496  17.0750   6.5694 N.3            1 <1>               -0.2978
     17 C          -37.3084  17.3486   5.4089 C.3            1 <1>                0.0032
     18 C          -37.8245  18.7890   5.4600 C.3            1 <1>               -0.0146
     19 C          -36.7128  19.7838   5.6476 C.ar           1 <1>               -0.0418
     20 C          -36.9230  21.1342   5.3471 C.ar           1 <1>               -0.0582
     21 C          -35.9009  22.0620   5.5347 C.ar           1 <1>               -0.0615
     22 C          -34.6672  21.6477   6.0313 C.ar           1 <1>               -0.0614
     23 C          -34.4565  20.3059   6.3512 C.ar           1 <1>               -0.0571
     24 C          -35.4809  19.3639   6.1773 C.ar           1 <1>               -0.0302
     25 C          -35.2242  17.9040   6.4856 C.3            1 <1>                0.0243
     26 C          -38.6878   8.9594   4.9475 C.ar           1 <1>                0.1514
     27 C          -38.1440   8.5569   3.6995 C.ar           1 <1>                0.2822
     28 O          -37.5951   9.3336   2.9208 O.2            1 <1>               -0.2652
     29 H          -37.9054   5.6349   2.0572 H              1 <1>                0.0458
     30 H          -36.7050   6.9472   2.1376 H              1 <1>                0.0458
     31 H          -38.2828   7.2379   1.3808 H              1 <1>                0.0458
     32 H          -40.0371   4.8370   6.1626 H              1 <1>                0.0458
     33 H          -41.0512   6.2060   6.6690 H              1 <1>                0.0458
     34 H          -39.4694   5.9221   7.4520 H              1 <1>                0.0458
     35 H          -39.5935  10.8009   7.4504 H              1 <1>                0.1029
     36 H          -38.9407  11.6622   4.1626 H              1 <1>                0.0492
     37 H          -37.2893  11.3206   4.6663 H              1 <1>                0.0492
     38 H          -38.1272  12.1595   7.0671 H              1 <1>                0.0282
     39 H          -39.4263  12.9092   6.1776 H              1 <1>                0.0282
     40 H          -37.8573  14.2576   4.8805 H              1 <1>                0.0266
     41 H          -36.4834  13.3261   5.4590 H              1 <1>                0.0266
     42 H          -37.1797  14.1995   7.8503 H              1 <1>                0.0278
     43 H          -38.2021  15.3082   6.9582 H              1 <1>                0.0278
     44 H          -35.5101  15.3273   5.7999 H              1 <1>                0.0427
     45 H          -35.4054  15.5738   7.5434 H              1 <1>                0.0427
     46 H          -38.1944  16.7068   5.4057 H              1 <1>                0.0430
     47 H          -36.7664  17.1613   4.4724 H              1 <1>                0.0430
     48 H          -38.5301  18.8980   6.2937 H              1 <1>                0.0326
     49 H          -38.3659  19.0003   4.5308 H              1 <1>                0.0326
     50 H          -37.8854  21.4657   4.9640 H              1 <1>                0.0620
     51 H          -36.0683  23.1081   5.2931 H              1 <1>                0.0618
     52 H          -33.8686  22.3715   6.1702 H              1 <1>                0.0618
     53 H          -33.4871  19.9975   6.7356 H              1 <1>                0.0621
     54 H          -34.6985  17.8428   7.4472 H              1 <1>                0.0476
     55 H          -34.5525  17.5167   5.7073 H              1 <1>                0.0476
     56 ****       -38.6211   4.7349   3.1722 LP             1 <1>                0.0000
     57 ****       -39.4105   4.4261   4.6827 LP             1 <1>                0.0000
     58 ****       -40.1653   8.3172   7.7407 LP             1 <1>                0.0000
     59 ****       -36.9772  17.3064   7.3867 LP             1 <1>                0.0000
     60 ****       -37.5148  10.3026   3.1546 LP             1 <1>                0.0000
     61 ****       -37.2289   8.9965   2.0534 LP             1 <1>                0.0000
@<TRIPOS>BOND
    1    1    2 1     
    2    2    3 am    
    3    3    4 2     
    4    3    5 am    
    5    5    6 1     
    6    5    7 ar    
    7    7    8 ar    
    8    8    9 ar    
    9    9   10 ar    
   10   10   11 1     
   11   11   12 1     
   12   12   13 1     
   13   13   14 1     
   14   14   15 1     
   15   15   16 1     
   16   16   17 1     
   17   17   18 1     
   18   18   19 1     
   19   19   20 ar    
   20   20   21 ar    
   21   21   22 ar    
   22   22   23 ar    
   23   23   24 ar    
   24   19   24 ar    
   25   24   25 1     
   26   16   25 1     
   27   10   26 ar    
   28    7   26 ar    
   29   26   27 ar    
   30    2   27 am    
   31   27   28 2     
   32    1   29 1     
   33    1   30 1     
   34    1   31 1     
   35    6   32 1     
   36    6   33 1     
   37    6   34 1     
   38    9   35 1     
   39   11   36 1     
   40   11   37 1     
   41   12   38 1     
   42   12   39 1     
   43   13   40 1     
   44   13   41 1     
   45   14   42 1     
   46   14   43 1     
   47   15   44 1     
   48   15   45 1     
   49   17   46 1     
   50   17   47 1     
   51   18   48 1     
   52   18   49 1     
   53   20   50 1     
   54   21   51 1     
   55   22   52 1     
   56   23   53 1     
   57   25   54 1     
   58   25   55 1     
   59    4   56 1     
   60    4   57 1     
   61    8   58 1     
   62   16   59 1     
   63   28   60 1     
   64   28   61 1     
@<TRIPOS>SUBSTRUCTURE
      1 ****           1
@<TRIPOS>SET
LONE_PAIRS      STATIC     ATOMS    <user>   **** ""
6 56 57 58 59 60 61
ATOM$BLUE        STATIC     ATOMS    COLORGROUP SYSTEM
6 56 57 58 59 60 61
@<TRIPOS>COMMENT
> <Gold.Version>
5.5

> <Gold.Id.Protein>
ID|ID_protein|mol2

> <Gold.Protein.ActiveResidues>
 LEU18   LEU52   SER53   ALA55   VAL56   ALA57   MET59   PRO60   PHE61   VAL62  
 SER63   VAL64   LEU67   TRP72   PHE78   CYS79   VAL81   PHE82   ILE83   ALA84  
 MET85   ASP86   VAL87   MET88   CYS89   CYS90   SER93   TRP131  THR138  LEU139 
 LEU142  PHE161  GLU222  GLU225  LEU229  LYS248  THR251  THR252  GLY254  ILE255 

> <Gold.Score>
     Score     S(PLP)   S(hbond)     S(cho)   S(metal)  DE(clash)   DE(tors)     intcor
     74.71     -76.00       0.00       0.00       0.00       0.00       0.66       0.03

> <Gold.PLP.Fitness>
74.7109

> <Gold.PLP.PLP>
-75.9973

> <Gold.PLP.part.hbond>
0.0000

> <Gold.PLP.part.metal>
0.0000

> <Gold.PLP.part.buried>
-8.0497

> <Gold.PLP.part.nonpolar>
-69.0614

> <Gold.PLP.part.repulsive>
0.5626

> <Gold.PLP.ligand.clash>
0.0000

> <Gold.PLP.ligand.torsion>
0.6583

> <Gold.PLP.Chemscore.Hbond>
0.0000

> <Gold.PLP.Chemscore.CHOScore>
0.0000

> <Gold.PLP.Chemscore.Metal>
0.0000

> <Gold.PLP.Chemscore.Internal.Correction>
0.0302

