#       Name:                C:\Users\porto\OneDrive\projekt\beta1\ligandy\2y00 2y00 1
#       Creating user name   student
#       Creation time:       Mon Apr 08 16:27:38 2019


#       File generated by GOLD software.
#

@<TRIPOS>MOLECULE
C:\Users\porto\OneDrive\projekt\beta1\ligandy\2y00 2y00 1|2y00|mol2|1|dock87
    52    53     1
SMALL
GASTEIGER


@<TRIPOS>ATOM
      1 C1         -23.0963  11.4999  18.6764 C.3            1 <1>               -0.0150
      2 N1         -23.7148   9.1690  18.0530 N.3            1 <1>               -0.3132
      3 O1         -25.9908  14.4367  21.3969 O.3            1 <1>               -0.5033
      4 C2         -24.1817  12.5494  18.8299 C.ar           1 <1>               -0.0425
      5 O2         -27.1596  15.4478  19.2301 O.3            1 <1>               -0.5033
      6 C3         -24.7984  13.0736  17.6809 C.ar           1 <1>               -0.0549
      7 O3         -23.0345   2.8310  12.1055 O.3            1 <1>               -0.5068
      8 C4         -25.7872  14.0666  17.7576 C.ar           1 <1>               -0.0163
      9 C5         -26.1925  14.5139  19.0172 C.ar           1 <1>                0.1582
     10 C6         -25.5583  13.9541  20.2175 C.ar           1 <1>                0.1585
     11 C7         -24.5710  12.9839  20.1070 C.ar           1 <1>               -0.0133
     12 C8         -23.5331  10.1131  19.1609 C.3            1 <1>                0.0001
     13 C9         -22.6199   8.3306  17.5545 C.3            1 <1>                0.0051
     14 C10        -21.3354   9.1425  17.3518 C.3            1 <1>               -0.0497
     15 C11        -22.9666   7.6452  16.2396 C.3            1 <1>               -0.0338
     16 C12        -23.7839   6.3709  16.4398 C.3            1 <1>               -0.0263
     17 C13        -23.5940   5.4509  15.2595 C.ar           1 <1>               -0.0471
     18 C14        -23.7086   5.9321  13.9495 C.ar           1 <1>               -0.0551
     19 C15        -23.5168   5.0542  12.8855 C.ar           1 <1>               -0.0199
     20 C16        -23.2307   3.7057  13.1277 C.ar           1 <1>                0.1169
     21 C17        -23.1226   3.2251  14.4204 C.ar           1 <1>               -0.0199
     22 C18        -23.3034   4.1057  15.4887 C.ar           1 <1>               -0.0551
     23 H11        -22.2093  11.8132  19.2270 H              1 <1>                0.0325
     24 H12        -22.7955  11.4402  17.6305 H              1 <1>                0.0325
     25 HN1        -24.4210   8.4911  18.3003 H              1 <1>                0.1222
     26 HO1        -26.9170  14.6780  21.3241 H              1 <1>                0.2923
     27 HO2        -26.9204  15.9911  19.9844 H              1 <1>                0.2923
     28 H3         -24.5147  12.7130  16.7036 H              1 <1>                0.0621
     29 HO3        -23.2143   1.9380  12.4086 H              1 <1>                0.2921
     30 H4         -26.2192  14.4700  16.8530 H              1 <1>                0.0655
     31 H7         -24.1041  12.5648  20.9863 H              1 <1>                0.0658
     32 H81        -24.4650  10.2012  19.7185 H              1 <1>                0.0427
     33 H82        -22.7887   9.7204  19.8537 H              1 <1>                0.0427
     34 H9         -22.4189   7.5580  18.2975 H              1 <1>                0.0458
     35 H101       -20.5455   8.4881  16.9821 H              1 <1>                0.0245
     36 H102       -21.5171   9.9370  16.6278 H              1 <1>                0.0245
     37 H103       -21.0286   9.5803  18.3016 H              1 <1>                0.0245
     38 H111       -22.0486   7.4065  15.7020 H              1 <1>                0.0283
     39 H112       -23.5228   8.3363  15.6064 H              1 <1>                0.0283
     40 H121       -24.8388   6.6277  16.5341 H              1 <1>                0.0314
     41 H122       -23.4550   5.8673  17.3494 H              1 <1>                0.0314
     42 H14        -23.9429   6.9715  13.7741 H              1 <1>                0.0621
     43 H15        -23.5889   5.4131  11.8699 H              1 <1>                0.0654
     44 H17        -22.9010   2.1822  14.5921 H              1 <1>                0.0654
     45 H18        -23.2163   3.7364  16.5001 H              1 <1>                0.0621
     46 ****       -23.9033   9.8292  17.3259 LP             1 <1>                0.0000
     47 ****       -25.4546  15.2439  21.6435 LP             1 <1>                0.0000
     48 ****       -25.8833  13.7367  22.1029 LP             1 <1>                0.0000
     49 ****       -28.0302  14.9905  19.4117 LP             1 <1>                0.0000
     50 ****       -27.2494  16.0254  18.4187 LP             1 <1>                0.0000
     51 ****       -22.0868   2.8920  11.7920 LP             1 <1>                0.0000
     52 ****       -23.6504   3.0570  11.3508 LP             1 <1>                0.0000
@<TRIPOS>BOND
    1    1    4 1     
    2    1   12 1     
    3    1   23 1     
    4    1   24 1     
    5    2   12 1     
    6    2   13 1     
    7    2   25 1     
    8    3   10 1     
    9    3   26 1     
   10    4    6 ar    
   11    4   11 ar    
   12    5    9 1     
   13    5   27 1     
   14    6    8 ar    
   15    6   28 1     
   16    7   20 1     
   17    7   29 1     
   18    8    9 ar    
   19    8   30 1     
   20    9   10 ar    
   21   10   11 ar    
   22   11   31 1     
   23   12   32 1     
   24   12   33 1     
   25   13   14 1     
   26   13   15 1     
   27   13   34 1     
   28   14   35 1     
   29   14   36 1     
   30   14   37 1     
   31   15   16 1     
   32   15   38 1     
   33   15   39 1     
   34   16   17 1     
   35   16   40 1     
   36   16   41 1     
   37   17   18 ar    
   38   17   22 ar    
   39   18   19 ar    
   40   18   42 1     
   41   19   20 ar    
   42   19   43 1     
   43   20   21 ar    
   44   21   22 ar    
   45   21   44 1     
   46   22   45 1     
   47    2   46 1     
   48    3   47 1     
   49    3   48 1     
   50    5   49 1     
   51    5   50 1     
   52    7   51 1     
   53    7   52 1     
@<TRIPOS>SUBSTRUCTURE
      1 ****           1
@<TRIPOS>SET
LONE_PAIRS      STATIC     ATOMS    <user>   **** ""
7 46 47 48 49 50 51 52
DONOR_HYDROGENS      STATIC     ATOMS    <user>   **** ""
4 25 26 27 29
ATOM$BLUE        STATIC     ATOMS    COLORGROUP SYSTEM
7 46 47 48 49 50 51 52
ATOM$RED        STATIC     ATOMS    COLORGROUP SYSTEM
4 25 26 27 29
@<TRIPOS>COMMENT
> <Gold.Version>
5.5

> <Gold.Id.Protein>
unknown|bialko_beta1|pdb

> <Gold.Protein.ActiveResidues>
 ALA86   ASP87   VAL90   VAL94   VAL95   GLY98   ALA99   LEU101  VAL102  CYS114 
 GLU115  TRP117  THR118  SER119  LEU120  ASP121  VAL122  CYS124  VAL125  THR126 
 SER128  SER173  PHE174  ILE177  CYS199  ASP200  PHE201  TYR207  SER215  PHE299 
 TRP303  PHE306  PHE307  ASN310  PHE325  VAL326  ASN329  TRP330  GLY332  TYR333 
 SER336 

> <Gold.Score>
     Score     S(PLP)   S(hbond)     S(cho)   S(metal)  DE(clash)   DE(tors)     intcor
     70.59     -70.00       1.00       0.00       0.00       0.00       1.22       0.03

> <Gold.PLP.Fitness>
70.5923

> <Gold.PLP.PLP>
-69.9968

> <Gold.PLP.part.hbond>
-2.0000

> <Gold.PLP.part.metal>
0.0000

> <Gold.PLP.part.buried>
-5.9390

> <Gold.PLP.part.nonpolar>
-62.1226

> <Gold.PLP.part.repulsive>
0.0000

> <Gold.PLP.ligand.clash>
0.0000

> <Gold.PLP.ligand.torsion>
1.2168

> <Gold.PLP.Chemscore.Hbond>
1.0000

> <Gold.PLP.Chemscore.CHOScore>
0.0000

> <Gold.PLP.Chemscore.Metal>
0.0000

> <Gold.Chemscore.Hbonds>
donor molecule, donor type, donor heavy atom, donor atom, acceptor molecule, acceptor atom, score
      L1  H     2    25       P1  2066  1.00

> <Gold.PLP.Chemscore.Internal.Correction>
0.0292

