#       Name:                C:\Users\porto\OneDrive\projekt\beta1\ligandy\L_4bvn.pdb L_4bvn.pdb 1
#       Creating user name   student
#       Creation time:       Mon Apr 08 16:28:23 2019


#       File generated by GOLD software.
#

@<TRIPOS>MOLECULE
C:\Users\porto\OneDrive\projekt\beta1\ligandy\L_4bvn.pdb L_4bvn.pdb 1|4bvn|mol2|1|dock4
    48    49     1
SMALL
GASTEIGER


@<TRIPOS>ATOM
      1 C1         -23.2272   4.9943  12.6995 C.2            1 <1>                0.1822
      2 N1         -23.6288   3.9408  13.3751 N.1            1 <1>               -0.3633
      3 O1         -23.0532   7.5840  15.9679 O.3            1 <1>               -0.4884
      4 C2         -23.0752   6.0399  13.5439 C.3            1 <1>                0.0496
      5 N2         -24.4260  10.0855  19.4612 N.3            1 <1>               -0.3088
      6 O2         -24.8637   9.1730  17.1079 O.3            1 <1>               -0.3872
      7 C3         -23.4121   5.6198  14.7637 C.ar           1 <1>                0.0656
      8 N3         -22.6030   5.0484   9.9938 N.1            1 <1>               -0.1885
      9 C4         -23.4530   6.2553  15.9521 C.ar           1 <1>                0.1336
     10 C5         -23.8973   5.5788  17.0537 C.ar           1 <1>               -0.0184
     11 C6         -24.2857   4.2388  16.9743 C.ar           1 <1>               -0.0489
     12 C7         -24.2503   3.6305  15.7096 C.ar           1 <1>                0.0031
     13 C8         -23.8117   4.3171  14.6407 C.ar           1 <1>               -0.0070
     14 C9         -22.6808   8.1117  17.1682 C.3            1 <1>                0.1166
     15 C10        -23.4434   9.4238  17.3440 C.3            1 <1>                0.1015
     16 C11        -23.1645   9.8585  18.7498 C.3            1 <1>                0.0256
     17 C12        -24.2263  10.3479  20.9513 C.3            1 <1>                0.0108
     18 C13        -25.5822  10.4324  21.7261 C.3            1 <1>               -0.0473
     19 C14        -23.4942  11.7095  21.1579 C.3            1 <1>               -0.0473
     20 C15        -23.3717   9.2896  21.6702 C.3            1 <1>               -0.0473
     21 C16        -22.9152   5.0288  11.2483 C.1            1 <1>                0.1289
     22 H21        -23.7400   6.8489  13.2427 H              1 <1>                0.0403
     23 H22        -22.0327   6.3573  13.5447 H              1 <1>                0.0403
     24 HN2        -25.0017   9.2648  19.3370 H              1 <1>                0.1225
     25 HO2        -25.2779   8.8827  17.9240 H              1 <1>                0.2100
     26 H5         -23.9534   6.0801  18.0088 H              1 <1>                0.0654
     27 H6         -24.5969   3.7125  17.8653 H              1 <1>                0.0625
     28 H7         -24.5763   2.6077  15.5931 H              1 <1>                0.0725
     29 H91        -21.6096   8.3131  17.1590 H              1 <1>                0.0723
     30 H92        -22.9549   7.4234  17.9679 H              1 <1>                0.0723
     31 H10        -23.0727  10.1698  16.6406 H              1 <1>                0.0640
     32 H111       -22.5933   9.0853  19.2624 H              1 <1>                0.0451
     33 H112       -22.5843  10.7811  18.7362 H              1 <1>                0.0451
     34 H131       -25.3869  10.6200  22.7821 H              1 <1>                0.0247
     35 H132       -26.1842  11.2445  21.3185 H              1 <1>                0.0247
     36 H133       -26.1216   9.4918  21.6189 H              1 <1>                0.0247
     37 H141       -23.3553  11.8897  22.2243 H              1 <1>                0.0247
     38 H142       -22.5224  11.6781  20.6659 H              1 <1>                0.0247
     39 H143       -24.0928  12.5133  20.7283 H              1 <1>                0.0247
     40 H151       -23.2793   9.5510  22.7246 H              1 <1>                0.0247
     41 H152       -23.8486   8.3137  21.5786 H              1 <1>                0.0247
     42 H153       -22.3809   9.2528  21.2173 H              1 <1>                0.0247
     43 ****       -23.8160   8.1310  15.6231 LP             1 <1>                0.0000
     44 ****       -22.2739   7.6703  15.3473 LP             1 <1>                0.0000
     45 ****       -24.8593  10.9033  19.0826 LP             1 <1>                0.0000
     46 ****       -24.9653   8.4624  16.4116 LP             1 <1>                0.0000
     47 ****       -25.3026  10.0142  16.7922 LP             1 <1>                0.0000
     48 ****       -22.3616   5.0636   9.0235 LP             1 <1>                0.0000
@<TRIPOS>BOND
    1    1    4 1     
    2    1   21 1     
    3    1    2 2     
    4    2   13 2     
    5    3    9 1     
    6    3   14 1     
    7    4    7 1     
    8    4   22 1     
    9    4   23 1     
   10    5   17 1     
   11    5   16 1     
   12    5   24 1     
   13    6   15 1     
   14    6   25 1     
   15    7    9 ar    
   16    7   13 ar    
   17    8   21 3     
   18    9   10 ar    
   19   10   11 ar    
   20   10   26 1     
   21   11   12 ar    
   22   11   27 1     
   23   12   13 ar    
   24   12   28 1     
   25   14   15 1     
   26   14   29 1     
   27   14   30 1     
   28   15   16 1     
   29   15   31 1     
   30   16   32 1     
   31   16   33 1     
   32   17   18 1     
   33   17   19 1     
   34   17   20 1     
   35   18   34 1     
   36   18   35 1     
   37   18   36 1     
   38   19   37 1     
   39   19   38 1     
   40   19   39 1     
   41   20   40 1     
   42   20   41 1     
   43   20   42 1     
   44    3   43 1     
   45    3   44 1     
   46    5   45 1     
   47    6   46 1     
   48    6   47 1     
   49    8   48 1     
@<TRIPOS>SUBSTRUCTURE
      1 ****           1
@<TRIPOS>SET
LONE_PAIRS      STATIC     ATOMS    <user>   **** ""
6 43 44 45 46 47 48
DONOR_HYDROGENS      STATIC     ATOMS    <user>   **** ""
2 24 25
ATOM$BLUE        STATIC     ATOMS    COLORGROUP SYSTEM
6 43 44 45 46 47 48
ATOM$RED        STATIC     ATOMS    COLORGROUP SYSTEM
2 24 25
@<TRIPOS>COMMENT
> <Gold.Version>
5.5

> <Gold.Id.Protein>
unknown|bialko_beta1|pdb

> <Gold.Protein.ActiveResidues>
 ALA86   ASP87   VAL90   VAL94   VAL95   GLY98   ALA99   LEU101  VAL102  CYS114 
 GLU115  TRP117  THR118  SER119  LEU120  ASP121  VAL122  CYS124  VAL125  THR126 
 SER128  SER173  PHE174  ILE177  CYS199  ASP200  PHE201  TYR207  SER215  PHE299 
 TRP303  PHE306  PHE307  ASN310  PHE325  VAL326  ASN329  TRP330  GLY332  TYR333 
 SER336 

> <Gold.Score>
     Score     S(PLP)   S(hbond)     S(cho)   S(metal)  DE(clash)   DE(tors)     intcor
     60.01     -56.42       1.99       0.00       0.00       0.00       1.46       0.54

> <Gold.PLP.Fitness>
60.0099

> <Gold.PLP.PLP>
-56.4228

> <Gold.PLP.part.hbond>
-2.0000

> <Gold.PLP.part.metal>
0.0000

> <Gold.PLP.part.buried>
-5.7175

> <Gold.PLP.part.nonpolar>
-48.2359

> <Gold.PLP.part.repulsive>
0.4049

> <Gold.PLP.ligand.clash>
0.0000

> <Gold.PLP.ligand.torsion>
1.4636

> <Gold.PLP.Chemscore.Hbond>
1.9913

> <Gold.PLP.Chemscore.CHOScore>
0.0000

> <Gold.PLP.Chemscore.Metal>
0.0000

> <Gold.Chemscore.Hbonds>
donor molecule, donor type, donor heavy atom, donor atom, acceptor molecule, acceptor atom, score
      L1  H     5    24       P1  2066  1.00
      L1  H     6    25       P1  2066  0.99

> <Gold.PLP.Chemscore.Internal.Correction>
0.5406

