#       Name:                C:\Users\porto\OneDrive\projekt\beta1\ligandy\L_3zpq.pdb L_3zpq.pdb 1
#       Creating user name   student
#       Creation time:       Mon Apr 01 15:36:42 2019


#       File generated by GOLD software.
#

@<TRIPOS>MOLECULE
C:\Users\porto\OneDrive\projekt\beta1\ligandy\L_3zpq.pdb L_3zpq.pdb 1|3zpq|mol2|1|dock1
    31    33     1
SMALL
GASTEIGER


@<TRIPOS>ATOM
      1 C1         -22.8977   2.3138  12.7111 C.ar           1 <1>               -0.0580
      2 C2         -23.1386   2.9476  13.9146 C.ar           1 <1>               -0.0400
      3 C3         -23.3780   4.3186  13.9271 C.ar           1 <1>                0.0390
      4 C4         -23.3530   5.0041  12.7758 C.ar           1 <1>                0.0207
      5 C5         -23.5240   6.3028  12.5063 C.ar           1 <1>               -0.0349
      6 C6         -23.4028   6.4831  11.1910 C.ar           1 <1>                0.0028
      7 N7         -23.1560   5.2955  10.6411 N.pl3          1 <1>               -0.3606
      8 C8         -23.1188   4.3861  11.6105 C.ar           1 <1>                0.0482
      9 C9         -22.8927   3.0769  11.5565 C.ar           1 <1>               -0.0377
     10 N10        -23.5646   4.9316  15.1127 N.pl3          1 <1>               -0.3270
     11 C11        -24.5873   4.3362  16.0326 C.3            1 <1>                0.0248
     12 C12        -24.4897   4.7033  17.4902 C.3            1 <1>                0.0117
     13 N13        -23.6896   5.9254  17.7171 N.3            1 <1>               -0.3130
     14 C14        -23.7408   6.7877  16.5345 C.3            1 <1>                0.0117
     15 C15        -22.9269   6.2263  15.4462 C.3            1 <1>                0.0248
     16 H1         -22.7197   1.2491  12.6874 H              1 <1>                0.0619
     17 H2         -23.1398   2.3800  14.8329 H              1 <1>                0.0636
     18 H5         -23.7232   6.9994  13.3078 H              1 <1>                0.0639
     19 H6         -23.5080   7.4714  10.7693 H              1 <1>                0.0807
     20 HN7        -23.0349   5.2173   9.6417 H              1 <1>                0.1653
     21 H9         -22.7043   2.6099  10.6007 H              1 <1>                0.0638
     22 H111       -24.5689   3.2511  15.9341 H              1 <1>                0.0476
     23 H112       -25.5839   4.5818  15.6667 H              1 <1>                0.0476
     24 H121       -24.0490   3.8744  18.0439 H              1 <1>                0.0439
     25 H122       -25.4914   4.8460  17.8957 H              1 <1>                0.0439
     26 HN13       -24.0607   6.4285  18.5106 H              1 <1>                0.1220
     27 H141       -23.3685   7.7795  16.7918 H              1 <1>                0.0439
     28 H142       -24.7743   6.8863  16.2016 H              1 <1>                0.0439
     29 H151       -22.9754   6.8870  14.5812 H              1 <1>                0.0476
     30 H152       -21.9142   6.0485  15.8072 H              1 <1>                0.0476
     31 ****       -22.7407   5.6638  17.8937 LP             1 <1>                0.0000
@<TRIPOS>BOND
    1    1    2 ar    
    2    1    9 ar    
    3    1   16 1     
    4    2    3 ar    
    5    2   17 1     
    6    3    4 ar    
    7    3   10 1     
    8    4    5 ar    
    9    4    8 ar    
   10    5    6 ar    
   11    5   18 1     
   12    6    7 ar    
   13    6   19 1     
   14    7    8 ar    
   15    7   20 1     
   16    8    9 ar    
   17    9   21 1     
   18   10   11 1     
   19   10   15 1     
   20   11   12 1     
   21   11   22 1     
   22   11   23 1     
   23   12   13 1     
   24   12   24 1     
   25   12   25 1     
   26   13   14 1     
   27   13   26 1     
   28   14   15 1     
   29   14   27 1     
   30   14   28 1     
   31   15   29 1     
   32   15   30 1     
   33   13   31 1     
@<TRIPOS>SUBSTRUCTURE
      1 ****           1
@<TRIPOS>SET
LONE_PAIRS      STATIC     ATOMS    <user>   **** ""
1 31
DONOR_HYDROGENS      STATIC     ATOMS    <user>   **** ""
2 20 26
ATOM$BLUE        STATIC     ATOMS    COLORGROUP SYSTEM
1 31
ATOM$RED        STATIC     ATOMS    COLORGROUP SYSTEM
2 20 26
@<TRIPOS>COMMENT
> <Gold.Version>
5.5

> <Gold.Id.Protein>
unknown|bialko_beta1|pdb

> <Gold.Protein.ActiveResidues>
 ALA86   ASP87   VAL90   VAL94   VAL95   GLY98   ALA99   LEU101  VAL102  CYS114 
 GLU115  TRP117  THR118  SER119  LEU120  ASP121  VAL122  CYS124  VAL125  THR126 
 SER128  SER173  PHE174  ILE177  CYS199  ASP200  PHE201  TYR207  SER215  PHE299 
 TRP303  PHE306  PHE307  ASN310  PHE325  VAL326  ASN329  TRP330  GLY332  TYR333 
 SER336 

> <Gold.Score>
     Score     S(PLP)   S(hbond)     S(cho)   S(metal)  DE(clash)   DE(tors)     intcor
     55.14     -53.30       0.76       0.00       0.00       0.00       0.78       1.13

> <Gold.PLP.Fitness>
55.1440

> <Gold.PLP.PLP>
-53.2997

> <Gold.PLP.part.hbond>
-3.5374

> <Gold.PLP.part.metal>
0.0000

> <Gold.PLP.part.buried>
-1.7282

> <Gold.PLP.part.nonpolar>
-49.2473

> <Gold.PLP.part.repulsive>
0.0000

> <Gold.PLP.ligand.clash>
0.0000

> <Gold.PLP.ligand.torsion>
0.7804

> <Gold.PLP.Chemscore.Hbond>
0.7576

> <Gold.PLP.Chemscore.CHOScore>
0.0000

> <Gold.PLP.Chemscore.Metal>
0.0000

> <Gold.Chemscore.Hbonds>
donor molecule, donor type, donor heavy atom, donor atom, acceptor molecule, acceptor atom, score
      L1  H    13    26       P1  2066  0.76

> <Gold.PLP.Chemscore.Internal.Correction>
1.1321

