#       Name:                *****
#       Creating user name   student
#       Creation time:       Mon Mar 18 16:46:36 2019


#       File generated by GOLD software.
#

@<TRIPOS>MOLECULE
*****|CHEMBL3765844|mol2|1|dock3
    60    63     1
SMALL
GASTEIGER


@<TRIPOS>ATOM
      1 C          -38.2003  20.3012   5.7524 C.3            1 <1>               -0.0612
      2 C          -37.0283  19.7499   4.9313 C.3            1 <1>               -0.0308
      3 C          -35.7624  20.5935   5.0977 C.3            1 <1>               -0.0455
      4 C          -35.1666  20.4284   6.4999 C.3            1 <1>               -0.0308
      5 C          -33.8557  21.2037   6.6179 C.3            1 <1>               -0.0612
      6 C          -34.9551  18.9396   6.8226 C.3            1 <1>                0.0015
      7 N          -36.1877  18.1429   6.6562 N.3            1 <1>               -0.3018
      8 C          -35.9026  16.7361   6.9949 C.3            1 <1>               -0.0011
      9 C          -37.1119  15.8106   6.8279 C.3            1 <1>               -0.0398
     10 C          -36.7726  14.6071   5.9540 C.3            1 <1>               -0.0434
     11 C          -37.8739  13.5494   6.0586 C.3            1 <1>                0.0270
     12 C          -37.3789  12.2075   5.5996 C.2            1 <1>                0.2323
     13 O          -36.2736  12.0329   5.0962 O.2            1 <1>               -0.2723
     14 N          -38.2831  11.1203   5.6998 N.am           1 <1>               -0.2798
     15 C          -38.2259  10.0049   4.8454 C.ar           1 <1>                0.0575
     16 C          -37.3791   9.7210   3.7515 C.ar           1 <1>               -0.0371
     17 C          -37.5539   8.5260   3.0501 C.ar           1 <1>               -0.0598
     18 C          -38.5457   7.6286   3.4167 C.ar           1 <1>               -0.0611
     19 C          -39.3923   7.9158   4.4906 C.ar           1 <1>               -0.0520
     20 C          -39.2385   9.1234   5.2081 C.ar           1 <1>                0.0080
     21 C          -39.9349   9.6967   6.3070 C.ar           1 <1>                0.0080
     22 C          -41.0267   9.2392   7.0821 C.ar           1 <1>               -0.0520
     23 C          -41.5035  10.0008   8.1471 C.ar           1 <1>               -0.0611
     24 C          -40.9048  11.2120   8.4509 C.ar           1 <1>               -0.0598
     25 C          -39.8286  11.6892   7.6951 C.ar           1 <1>               -0.0371
     26 C          -39.3471  10.9336   6.6023 C.ar           1 <1>                0.0575
     27 C          -36.7268  18.2886   5.2939 C.3            1 <1>                0.0015
     28 H          -38.3952  21.3468   5.4932 H              1 <1>                0.0233
     29 H          -38.0188  20.2499   6.8305 H              1 <1>                0.0233
     30 H          -39.1125  19.7304   5.5478 H              1 <1>                0.0233
     31 H          -37.3260  19.7844   3.8755 H              1 <1>                0.0311
     32 H          -35.9783  21.6484   4.8925 H              1 <1>                0.0271
     33 H          -35.0259  20.2721   4.3484 H              1 <1>                0.0271
     34 H          -35.8623  20.8513   7.2355 H              1 <1>                0.0311
     35 H          -33.0973  20.8145   5.9304 H              1 <1>                0.0233
     36 H          -33.4579  21.1377   7.6358 H              1 <1>                0.0233
     37 H          -34.0112  22.2628   6.3867 H              1 <1>                0.0233
     38 H          -34.6121  18.8601   7.8623 H              1 <1>                0.0429
     39 H          -34.1540  18.5354   6.1882 H              1 <1>                0.0429
     40 H          -35.5895  16.6883   8.0465 H              1 <1>                0.0426
     41 H          -35.0668  16.3558   6.3933 H              1 <1>                0.0426
     42 H          -37.9428  16.3380   6.3481 H              1 <1>                0.0278
     43 H          -37.4594  15.4740   7.8125 H              1 <1>                0.0278
     44 H          -35.8163  14.1733   6.2719 H              1 <1>                0.0270
     45 H          -36.6484  14.9266   4.9119 H              1 <1>                0.0270
     46 H          -38.7280  13.8448   5.4375 H              1 <1>                0.0361
     47 H          -38.1558  13.5012   7.1081 H              1 <1>                0.0361
     48 H          -36.5969  10.4089   3.4404 H              1 <1>                0.0638
     49 H          -36.9027   8.3023   2.2079 H              1 <1>                0.0618
     50 H          -38.6683   6.7005   2.8654 H              1 <1>                0.0618
     51 H          -40.1709   7.2107   4.7665 H              1 <1>                0.0624
     52 H          -41.4880   8.2809   6.8574 H              1 <1>                0.0624
     53 H          -42.3349   9.6374   8.7453 H              1 <1>                0.0618
     54 H          -41.2676  11.7948   9.2948 H              1 <1>                0.0618
     55 H          -39.3923  12.6270   8.0090 H              1 <1>                0.0638
     56 H          -37.6699  17.7418   5.1923 H              1 <1>                0.0429
     57 H          -36.0273  17.8647   4.5612 H              1 <1>                0.0429
     58 ****       -36.8941  18.4797   7.2788 LP             1 <1>                0.0000
     59 ****       -35.6519  12.8066   4.9742 LP             1 <1>                0.0000
     60 ****       -35.9944  11.1170   4.8079 LP             1 <1>                0.0000
@<TRIPOS>BOND
    1    1    2 1     
    2    2    3 1     
    3    3    4 1     
    4    4    5 1     
    5    4    6 1     
    6    6    7 1     
    7    7    8 1     
    8    8    9 1     
    9    9   10 1     
   10   10   11 1     
   11   11   12 1     
   12   12   13 2     
   13   12   14 am    
   14   14   15 ar    
   15   15   16 ar    
   16   16   17 ar    
   17   17   18 ar    
   18   18   19 ar    
   19   19   20 ar    
   20   15   20 ar    
   21   20   21 ar    
   22   21   22 ar    
   23   22   23 ar    
   24   23   24 ar    
   25   24   25 ar    
   26   25   26 ar    
   27   14   26 ar    
   28   21   26 ar    
   29    7   27 1     
   30    2   27 1     
   31    1   28 1     
   32    1   29 1     
   33    1   30 1     
   34    2   31 1     
   35    3   32 1     
   36    3   33 1     
   37    4   34 1     
   38    5   35 1     
   39    5   36 1     
   40    5   37 1     
   41    6   38 1     
   42    6   39 1     
   43    8   40 1     
   44    8   41 1     
   45    9   42 1     
   46    9   43 1     
   47   10   44 1     
   48   10   45 1     
   49   11   46 1     
   50   11   47 1     
   51   16   48 1     
   52   17   49 1     
   53   18   50 1     
   54   19   51 1     
   55   22   52 1     
   56   23   53 1     
   57   24   54 1     
   58   25   55 1     
   59   27   56 1     
   60   27   57 1     
   61    7   58 1     
   62   13   59 1     
   63   13   60 1     
@<TRIPOS>SUBSTRUCTURE
      1 ****           1
@<TRIPOS>SET
LONE_PAIRS      STATIC     ATOMS    <user>   **** ""
3 58 59 60
ATOM$BLUE        STATIC     ATOMS    COLORGROUP SYSTEM
3 58 59 60
@<TRIPOS>COMMENT
> <Gold.Version>
5.5

> <Gold.Id.Protein>
ID|ID_protein|mol2

> <Gold.Protein.ActiveResidues>
 LEU18   LEU52   SER53   ALA55   VAL56   ALA57   MET59   PRO60   PHE61   VAL62  
 SER63   VAL64   LEU67   TRP72   PHE78   CYS79   VAL81   PHE82   ILE83   ALA84  
 MET85   ASP86   VAL87   MET88   CYS89   CYS90   SER93   TRP131  THR138  LEU139 
 LEU142  PHE161  GLU222  GLU225  LEU229  LYS248  THR251  THR252  GLY254  ILE255 

> <Gold.Score>
     Score     S(PLP)   S(hbond)     S(cho)   S(metal)  DE(clash)   DE(tors)     intcor
     76.51     -77.52       0.00       0.00       0.00       0.00       0.81       0.61

> <Gold.PLP.Fitness>
76.5091

> <Gold.PLP.PLP>
-77.5165

> <Gold.PLP.part.hbond>
0.0000

> <Gold.PLP.part.metal>
0.0000

> <Gold.PLP.part.buried>
-5.5585

> <Gold.PLP.part.nonpolar>
-73.1006

> <Gold.PLP.part.repulsive>
0.3097

> <Gold.PLP.ligand.clash>
0.0000

> <Gold.PLP.ligand.torsion>
0.8089

> <Gold.PLP.Chemscore.Hbond>
0.0000

> <Gold.PLP.Chemscore.CHOScore>
0.0000

> <Gold.PLP.Chemscore.Metal>
0.0000

> <Gold.PLP.Chemscore.Internal.Correction>
0.6103

