#       Name:                C:\Users\porto\OneDrive\projekt\beta2\ligandy\L_2rh1.pdb L_2rh1.pdb 1
#       Creating user name   student
#       Creation time:       Mon Apr 08 16:01:25 2019


#       File generated by GOLD software.
#

@<TRIPOS>MOLECULE
C:\Users\porto\OneDrive\projekt\beta2\ligandy\L_2rh1.pdb L_2rh1.pdb 1|2rh1|mol2|1|dock38
    49    51     1
SMALL
GASTEIGER


@<TRIPOS>ATOM
      1 C1         -25.5319   7.2589   7.1196 C.ar           1 <1>               -0.0598
      2 C2         -24.9070   8.3446   6.5166 C.ar           1 <1>               -0.0378
      3 C3         -25.6222   9.4908   6.2598 C.ar           1 <1>                0.0476
      4 C4         -27.0309   9.5214   6.6360 C.ar           1 <1>                0.0109
      5 C5         -27.6357   8.4304   7.2340 C.ar           1 <1>               -0.0519
      6 C6         -26.8776   7.2994   7.4731 C.ar           1 <1>               -0.0611
      7 N7         -25.3275  10.7098   5.6932 N.pl3          1 <1>               -0.3540
      8 C8         -26.4513  11.5027   5.6894 C.ar           1 <1>                0.0510
      9 C9         -27.5341  10.7344   6.2926 C.ar           1 <1>                0.0490
     10 C10        -26.7179  12.7694   5.2607 C.ar           1 <1>               -0.0375
     11 C11        -27.9868  13.3053   5.3986 C.ar           1 <1>               -0.0563
     12 C12        -29.0149  12.5714   5.9734 C.ar           1 <1>               -0.0192
     13 C13        -28.8052  11.2656   6.4331 C.ar           1 <1>                0.1303
     14 O14        -29.8098  10.5419   6.9972 O.3            1 <1>               -0.4887
     15 C15        -31.1847  10.8388   6.8469 C.3            1 <1>                0.1166
     16 C16        -31.9875   9.9376   7.7514 C.3            1 <1>                0.1015
     17 O17        -33.1888  10.5994   8.1090 O.3            1 <1>               -0.3872
     18 C18        -32.2799   8.6138   7.0384 C.3            1 <1>                0.0254
     19 N19        -33.4220   7.9132   7.6172 N.3            1 <1>               -0.3112
     20 C20        -33.6733   6.5121   7.3292 C.3            1 <1>                0.0021
     21 C21        -33.4708   6.2647   5.8356 C.3            1 <1>               -0.0499
     22 C22        -35.0810   6.1322   7.7985 C.3            1 <1>               -0.0499
     23 H1         -24.9491   6.3698   7.3126 H              1 <1>                0.0618
     24 H2         -23.8621   8.2871   6.2510 H              1 <1>                0.0638
     25 H5         -28.6801   8.4734   7.5044 H              1 <1>                0.0624
     26 H6         -27.3392   6.4418   7.9395 H              1 <1>                0.0618
     27 HN7        -24.3929  10.8993   5.3594 H              1 <1>                0.1659
     28 H10        -25.9364  13.3628   4.8100 H              1 <1>                0.0638
     29 H11        -28.1889  14.3093   5.0560 H              1 <1>                0.0619
     30 H12        -29.9986  13.0062   6.0726 H              1 <1>                0.0654
     31 H151       -31.4812  10.6717   5.8113 H              1 <1>                0.0723
     32 H152       -31.3634  11.8785   7.1197 H              1 <1>                0.0723
     33 H16        -31.4113   9.7347   8.6542 H              1 <1>                0.0640
     34 HO17       -33.8463  10.4617   7.4240 H              1 <1>                0.2100
     35 H181       -31.3993   7.9734   7.0874 H              1 <1>                0.0450
     36 H182       -32.4693   8.8046   5.9819 H              1 <1>                0.0450
     37 HN19       -33.3546   7.9342   8.6243 H              1 <1>                0.1223
     38 H20        -32.9508   5.9102   7.8803 H              1 <1>                0.0455
     39 H211       -33.6574   5.2145   5.6121 H              1 <1>                0.0245
     40 H212       -34.1629   6.8852   5.2663 H              1 <1>                0.0245
     41 H213       -32.4464   6.5170   5.5600 H              1 <1>                0.0245
     42 H221       -35.2657   5.0800   7.5808 H              1 <1>                0.0245
     43 H222       -35.1640   6.3006   8.8725 H              1 <1>                0.0245
     44 H223       -35.8165   6.7456   7.2775 H              1 <1>                0.0245
     45 ****       -29.6356  10.5595   7.9818 LP             1 <1>                0.0000
     46 ****       -29.6958   9.6091   6.6552 LP             1 <1>                0.0000
     47 ****       -33.0126  11.5786   8.2098 LP             1 <1>                0.0000
     48 ****       -33.5273  10.2309   8.9748 LP             1 <1>                0.0000
     49 ****       -34.1622   8.4210   7.1763 LP             1 <1>                0.0000
@<TRIPOS>BOND
    1    1    6 ar    
    2    1    2 ar    
    3    1   23 1     
    4    2    3 ar    
    5    2   24 1     
    6    3    4 ar    
    7    3    7 ar    
    8    4    5 ar    
    9    4    9 ar    
   10    5    6 ar    
   11    5   25 1     
   12    6   26 1     
   13    7    8 ar    
   14    7   27 1     
   15    8    9 ar    
   16    8   10 ar    
   17    9   13 ar    
   18   10   11 ar    
   19   10   28 1     
   20   11   12 ar    
   21   11   29 1     
   22   12   13 ar    
   23   12   30 1     
   24   13   14 1     
   25   14   15 1     
   26   15   16 1     
   27   15   31 1     
   28   15   32 1     
   29   16   18 1     
   30   16   17 1     
   31   16   33 1     
   32   17   34 1     
   33   18   19 1     
   34   18   35 1     
   35   18   36 1     
   36   19   20 1     
   37   19   37 1     
   38   20   21 1     
   39   20   22 1     
   40   20   38 1     
   41   21   39 1     
   42   21   40 1     
   43   21   41 1     
   44   22   42 1     
   45   22   43 1     
   46   22   44 1     
   47   14   45 1     
   48   14   46 1     
   49   17   47 1     
   50   17   48 1     
   51   19   49 1     
@<TRIPOS>SUBSTRUCTURE
      1 ****           1
@<TRIPOS>SET
LONE_PAIRS      STATIC     ATOMS    <user>   **** ""
5 45 46 47 48 49
DONOR_HYDROGENS      STATIC     ATOMS    <user>   **** ""
3 27 34 37
ATOM$BLUE        STATIC     ATOMS    COLORGROUP SYSTEM
5 45 46 47 48 49
ATOM$RED        STATIC     ATOMS    COLORGROUP SYSTEM
3 27 34 37
@<TRIPOS>COMMENT
> <Gold.Version>
5.5

> <Gold.Id.Protein>
unknown|dok_beta2|pdb

> <Gold.Protein.RotatedTorsions>
[ 4175 4166 4165 4163 ] final  -68.20 input -179.98 | X-H torsion
[ 1294 1290 1288 1285 ] final -142.09 input -179.99 | X-H torsion
[ 4033 4024 4023 4021 ] final -110.20 input  179.98 | X-H torsion
[ 1412 1408 1406 1403 ] final  -72.47 input -179.99 | X-H torsion
[ 2830 2825 2824 2821 ] final -166.84 input -179.98 | X-H torsion
[ 2723 2714 2713 2711 ] final  -48.49 input -179.98 | X-H torsion
[ 2773 2768 2767 2764 ] final   92.30 input  180.00 | X-H torsion

> <Gold.Protein.ActiveResidues>
 TRP109  THR110  ASP113  VAL114  VAL117  THR118  PHE193  TYR199  SER203  SER207 
 PHE208  TRP286  PHE289  PHE290  ASN293  TYR308  ASN312  TYR316 

> <Gold.Protein.RotatedAtoms>
  -33.8878    3.8297    2.1764 H   0  0  0  0  0  0  0  0  0  0  0  0  # atno 1294 bound_to 1290
  -26.7393   15.1721    3.0025 H   0  0  0  0  0  0  0  0  0  0  0  0  # atno 1412 bound_to 1408
  -25.9433    8.3861    1.8298 H   0  0  0  0  0  0  0  0  0  0  0  0  # atno 2723 bound_to 2714
  -23.9794   10.0848    2.1618 H   0  0  0  0  0  0  0  0  0  0  0  0  # atno 2773 bound_to 2768
  -25.0106   13.0864    2.6945 H   0  0  0  0  0  0  0  0  0  0  0  0  # atno 2830 bound_to 2825
  -27.8370    5.7198   11.2869 H   0  0  0  0  0  0  0  0  0  0  0  0  # atno 4033 bound_to 4024
  -36.6134    8.4224    8.5725 H   0  0  0  0  0  0  0  0  0  0  0  0  # atno 4175 bound_to 4166
  -36.3465    9.3424    7.2906 LP  0  0  0  0  0  0  0  0  0  0  0  0  # atno 4597 bound_to 4166
  -37.8041    8.6453    7.5268 LP  0  0  0  0  0  0  0  0  0  0  0  0  # atno 4598 bound_to 4166
  -34.9551    3.8799    0.9849 LP  0  0  0  0  0  0  0  0  0  0  0  0  # atno 4603 bound_to 1290
  -35.1688    4.7762    2.3331 LP  0  0  0  0  0  0  0  0  0  0  0  0  # atno 4604 bound_to 1290
  -28.6473    7.0975   11.3739 LP  0  0  0  0  0  0  0  0  0  0  0  0  # atno 4607 bound_to 4024
  -29.2652    5.8170   10.5707 LP  0  0  0  0  0  0  0  0  0  0  0  0  # atno 4608 bound_to 4024
  -27.3473   14.5488    1.6597 LP  0  0  0  0  0  0  0  0  0  0  0  0  # atno 4611 bound_to 1408
  -28.3035   14.8375    2.9515 LP  0  0  0  0  0  0  0  0  0  0  0  0  # atno 4612 bound_to 1408
  -23.4359   13.0486    2.9759 LP  0  0  0  0  0  0  0  0  0  0  0  0  # atno 4613 bound_to 2825
  -24.0795   14.1816    1.9918 LP  0  0  0  0  0  0  0  0  0  0  0  0  # atno 4614 bound_to 2825

> <Gold.Score>
     Score     S(PLP)   S(hbond)     S(cho)   S(metal)  DE(clash)   DE(tors)     intcor
     85.21     -78.58       2.79       0.00       0.00       0.00       0.96       0.17

> <Gold.PLP.Fitness>
85.2145

> <Gold.PLP.PLP>
-78.5847

> <Gold.PLP.part.hbond>
-4.5381

> <Gold.PLP.part.metal>
0.0000

> <Gold.PLP.part.buried>
-10.4610

> <Gold.PLP.part.nonpolar>
-64.5050

> <Gold.PLP.part.repulsive>
0.0934

> <Gold.PLP.ligand.clash>
0.0000

> <Gold.PLP.ligand.torsion>
0.9580

> <Gold.PLP.Chemscore.Hbond>
2.7920

> <Gold.PLP.Chemscore.CHOScore>
0.0000

> <Gold.PLP.Chemscore.Metal>
0.0000

> <Gold.Chemscore.Hbonds>
donor molecule, donor type, donor heavy atom, donor atom, acceptor molecule, acceptor atom, score
      L1  H    17    34       P1  1334  0.80
      L1  H    19    37       P1  4098  1.00
      P1  H  4097  4104       L1    17  0.99

> <Gold.PLP.Chemscore.Internal.Correction>
0.1698

