#       Name:                C:\Users\porto\OneDrive\projekt\beta2\ligandy\L_4ldo.pdb L_4ldo.pdb 1
#       Creating user name   student
#       Creation time:       Mon Apr 08 14:29:23 2019


#       File generated by GOLD software.
#

@<TRIPOS>MOLECULE
C:\Users\porto\OneDrive\projekt\beta2\ligandy\L_4ldo.pdb L_4ldo.pdb 1|4ldo|mol2|1|dock3
    33    33     1
SMALL
GASTEIGER


@<TRIPOS>ATOM
      1 C1         -29.1258  10.1874   7.2872 C.ar           1 <1>               -0.0143
      2 N1         -26.3515   9.3254   5.0916 N.3            1 <1>               -0.3162
      3 O1         -32.2887   8.4545   7.9374 O.3            1 <1>               -0.5033
      4 C2         -30.0224   9.1389   7.4727 C.ar           1 <1>               -0.0109
      5 O2         -33.1106  10.9329   8.0943 O.3            1 <1>               -0.5033
      6 C3         -31.3557   9.4255   7.7432 C.ar           1 <1>                0.1586
      7 O3         -27.2185   9.1372   8.0765 O.3            1 <1>               -0.3859
      8 C4         -31.7906  10.7396   7.8259 C.ar           1 <1>                0.1582
      9 C5         -30.9018  11.7913   7.6406 C.ar           1 <1>               -0.0162
     10 C6         -29.5659  11.5062   7.3711 C.ar           1 <1>               -0.0524
     11 C7         -27.7892   9.9088   7.0159 C.3            1 <1>                0.0927
     12 C8         -27.6764   9.1373   5.6995 C.3            1 <1>                0.0258
     13 C9         -25.3620   8.5041   5.8020 C.3            1 <1>               -0.0157
     14 HN1        -26.3833   9.0471   4.1215 H              1 <1>                0.1217
     15 HO1        -32.8322   8.6798   8.6957 H              1 <1>                0.2923
     16 H2         -29.6793   8.1171   7.4059 H              1 <1>                0.0659
     17 HO2        -33.6288  10.7425   7.3089 H              1 <1>                0.2923
     18 HO3        -27.2291   8.2068   7.8378 H              1 <1>                0.2103
     19 H5         -31.2508  12.8117   7.7066 H              1 <1>                0.0655
     20 H6         -28.8692  12.3183   7.2269 H              1 <1>                0.0622
     21 H7         -27.2426  10.8470   6.9259 H              1 <1>                0.0656
     22 H81        -27.8426   8.0766   5.8852 H              1 <1>                0.0453
     23 H82        -28.4451   9.4843   5.0091 H              1 <1>                0.0453
     24 H91        -24.3799   8.6448   5.3499 H              1 <1>                0.0388
     25 H92        -25.3255   8.8040   6.8494 H              1 <1>                0.0388
     26 H93        -25.6451   7.4535   5.7343 H              1 <1>                0.0388
     27 ****       -26.0917  10.2890   5.1553 LP             1 <1>                0.0000
     28 ****       -31.8311   7.5809   8.1031 LP             1 <1>                0.0000
     29 ****       -32.8659   8.3795   7.1243 LP             1 <1>                0.0000
     30 ****       -33.2590  11.8828   8.3693 LP             1 <1>                0.0000
     31 ****       -33.3926  10.3234   8.8353 LP             1 <1>                0.0000
     32 ****       -27.7516   9.2730   8.9116 LP             1 <1>                0.0000
     33 ****       -26.2752   9.4306   8.2318 LP             1 <1>                0.0000
@<TRIPOS>BOND
    1    1    4 ar    
    2    1   10 ar    
    3    1   11 1     
    4    2   12 1     
    5    2   13 1     
    6    2   14 1     
    7    3    6 1     
    8    3   15 1     
    9    4    6 ar    
   10    4   16 1     
   11    5    8 1     
   12    5   17 1     
   13    6    8 ar    
   14    7   11 1     
   15    7   18 1     
   16    8    9 ar    
   17    9   10 ar    
   18    9   19 1     
   19   10   20 1     
   20   11   12 1     
   21   11   21 1     
   22   12   22 1     
   23   12   23 1     
   24   13   24 1     
   25   13   25 1     
   26   13   26 1     
   27    2   27 1     
   28    3   28 1     
   29    3   29 1     
   30    5   30 1     
   31    5   31 1     
   32    7   32 1     
   33    7   33 1     
@<TRIPOS>SUBSTRUCTURE
      1 ****           1
@<TRIPOS>SET
LONE_PAIRS      STATIC     ATOMS    <user>   **** ""
7 27 28 29 30 31 32 33
DONOR_HYDROGENS      STATIC     ATOMS    <user>   **** ""
4 14 15 17 18
ATOM$BLUE        STATIC     ATOMS    COLORGROUP SYSTEM
7 27 28 29 30 31 32 33
ATOM$RED        STATIC     ATOMS    COLORGROUP SYSTEM
4 14 15 17 18
@<TRIPOS>COMMENT
> <Gold.Version>
5.5

> <Gold.Id.Protein>
unknown|dok_beta2|pdb

> <Gold.Protein.RotatedTorsions>
[ 4175 4166 4165 4163 ] final  -84.17 input -179.98 | X-H torsion
[ 1294 1290 1288 1285 ] final  -63.57 input -179.99 | X-H torsion
[ 4033 4024 4023 4021 ] final  116.39 input  179.98 | X-H torsion
[ 1412 1408 1406 1403 ] final  115.19 input -179.99 | X-H torsion
[ 2830 2825 2824 2821 ] final   61.86 input -179.98 | X-H torsion
[ 2723 2714 2713 2711 ] final -146.98 input -179.98 | X-H torsion
[ 2773 2768 2767 2764 ] final -107.59 input  180.00 | X-H torsion

> <Gold.Protein.ActiveResidues>
 TRP109  THR110  ASP113  VAL114  VAL117  THR118  PHE193  TYR199  SER203  SER207 
 PHE208  TRP286  PHE289  PHE290  ASN293  TYR308  ASN312  TYR316 

> <Gold.Protein.RotatedAtoms>
  -34.6187    4.5839    2.6333 H   0  0  0  0  0  0  0  0  0  0  0  0  # atno 1294 bound_to 1290
  -28.0933   14.5394    1.9891 H   0  0  0  0  0  0  0  0  0  0  0  0  # atno 1412 bound_to 1408
  -26.5547    7.8428    2.9299 H   0  0  0  0  0  0  0  0  0  0  0  0  # atno 2723 bound_to 2714
  -24.5771   10.0079    3.8393 H   0  0  0  0  0  0  0  0  0  0  0  0  # atno 2773 bound_to 2768
  -23.3775   13.2003    2.8852 H   0  0  0  0  0  0  0  0  0  0  0  0  # atno 2830 bound_to 2825
  -28.8362    7.0491   11.2734 H   0  0  0  0  0  0  0  0  0  0  0  0  # atno 4033 bound_to 4024
  -36.4031    8.5433    8.5072 H   0  0  0  0  0  0  0  0  0  0  0  0  # atno 4175 bound_to 4166
  -36.5601    9.3608    7.1404 LP  0  0  0  0  0  0  0  0  0  0  0  0  # atno 4597 bound_to 4166
  -37.8097    8.5008    7.7451 LP  0  0  0  0  0  0  0  0  0  0  0  0  # atno 4598 bound_to 4166
  -33.9811    3.5506    1.5906 LP  0  0  0  0  0  0  0  0  0  0  0  0  # atno 4603 bound_to 1290
  -35.3811    4.3195    1.2512 LP  0  0  0  0  0  0  0  0  0  0  0  0  # atno 4604 bound_to 1290
  -29.1328    5.6409   10.5725 LP  0  0  0  0  0  0  0  0  0  0  0  0  # atno 4607 bound_to 4024
  -27.7389    5.8891   11.3862 LP  0  0  0  0  0  0  0  0  0  0  0  0  # atno 4608 bound_to 4024
  -27.6799   15.1289    3.4183 LP  0  0  0  0  0  0  0  0  0  0  0  0  # atno 4611 bound_to 1408
  -26.5599   14.9167    2.2490 LP  0  0  0  0  0  0  0  0  0  0  0  0  # atno 4612 bound_to 1408
  -24.2636   14.1688    1.9703 LP  0  0  0  0  0  0  0  0  0  0  0  0  # atno 4613 bound_to 2825
  -24.9543   12.9426    2.7986 LP  0  0  0  0  0  0  0  0  0  0  0  0  # atno 4614 bound_to 2825

> <Gold.Score>
     Score     S(PLP)   S(hbond)     S(cho)   S(metal)  DE(clash)   DE(tors)     intcor
     50.98     -41.23       3.46       0.00       0.00       0.00       0.33       0.01

> <Gold.PLP.Fitness>
50.9810

> <Gold.PLP.PLP>
-41.2337

> <Gold.PLP.part.hbond>
-4.7086

> <Gold.PLP.part.metal>
0.0000

> <Gold.PLP.part.buried>
-5.8726

> <Gold.PLP.part.nonpolar>
-31.9545

> <Gold.PLP.part.repulsive>
0.0000

> <Gold.PLP.ligand.clash>
0.0000

> <Gold.PLP.ligand.torsion>
0.3292

> <Gold.PLP.Chemscore.Hbond>
3.4640

> <Gold.PLP.Chemscore.CHOScore>
0.0000

> <Gold.PLP.Chemscore.Metal>
0.0000

> <Gold.Chemscore.Hbonds>
donor molecule, donor type, donor heavy atom, donor atom, acceptor molecule, acceptor atom, score
      L1  H     3    15       P1  4098  1.00
      L1  H     5    17       P1  1334  1.00
      P1  H  4097  4104       L1     5  1.00
      P1  H  3760  3767       L1     7  0.46

> <Gold.PLP.Chemscore.Internal.Correction>
0.0137

