#       Name:                C:\Users\porto\OneDrive\projekt\beta2\ligandy\L_4ldl.pdb L_4ldl.pdb 1
#       Creating user name   student
#       Creation time:       Mon Apr 01 15:50:01 2019


#       File generated by GOLD software.
#

@<TRIPOS>MOLECULE
C:\Users\porto\OneDrive\projekt\beta2\ligandy\L_4ldl.pdb L_4ldl.pdb 1|4ldl|mol2|1|dock2
    55    56     1
SMALL
GASTEIGER


@<TRIPOS>ATOM
      1 CAA        -33.6077   6.2164   5.8625 C.3            1 <1>               -0.0467
      2 CAB        -33.7224   6.5922   7.3364 C.3            1 <1>                0.0176
      3 CAC        -32.5874   5.9609   8.1334 C.3            1 <1>               -0.0467
      4 CAD        -35.0861   6.2025   7.9117 C.3            1 <1>               -0.0098
      5 CAE        -35.1102   4.8197   8.5343 C.ar           1 <1>               -0.0454
      6 CAF        -34.7160   3.6975   7.8095 C.ar           1 <1>               -0.0551
      7 CAG        -34.7518   2.4370   8.3922 C.ar           1 <1>               -0.0199
      8 CAH        -35.1962   2.2887   9.7024 C.ar           1 <1>                0.1169
      9 CAJ        -35.6007   3.4042  10.4257 C.ar           1 <1>               -0.0199
     10 CAK        -35.5647   4.6641   9.8408 C.ar           1 <1>               -0.0551
     11 CAM        -32.3417   8.6288   6.9485 C.3            1 <1>                0.0266
     12 CAN        -31.8972   9.7624   7.8645 C.3            1 <1>                0.0927
     13 CAP        -30.7566  10.4564   7.2239 C.ar           1 <1>               -0.0143
     14 CAQ        -30.8633  11.7809   6.8162 C.ar           1 <1>               -0.0524
     15 CAR        -29.7760  12.4089   6.2174 C.ar           1 <1>               -0.0162
     16 CAS        -28.5833  11.7178   6.0329 C.ar           1 <1>                0.1582
     17 CAU        -28.4770  10.4017   6.4452 C.ar           1 <1>                0.1586
     18 CAW        -29.5616   9.7708   7.0414 C.ar           1 <1>               -0.0109
     19 NAL        -33.5727   8.0300   7.4283 N.3            1 <1>               -0.3080
     20 OAI        -35.2338   1.0532  10.2747 O.3            1 <1>               -0.5068
     21 OAO        -32.9903  10.6559   8.1040 O.3            1 <1>               -0.3859
     22 OAT        -27.5173  12.3345   5.4478 O.3            1 <1>               -0.5033
     23 OAV        -27.3103   9.7225   6.2665 O.3            1 <1>               -0.5033
     24 HAA1       -34.4250   6.6744   5.3054 H              1 <1>                0.0247
     25 HAA2       -32.6562   6.5728   5.4693 H              1 <1>                0.0247
     26 HAA3       -33.6599   5.1328   5.7582 H              1 <1>                0.0247
     27 HAC1       -32.6819   6.2377   9.1831 H              1 <1>                0.0247
     28 HAC2       -32.6354   4.8765   8.0385 H              1 <1>                0.0247
     29 HAC3       -31.6317   6.3165   7.7496 H              1 <1>                0.0247
     30 HAD1       -35.8390   6.2583   7.1262 H              1 <1>                0.0331
     31 HAD2       -35.3892   6.9393   8.6556 H              1 <1>                0.0331
     32 HAF        -34.3804   3.8045   6.7886 H              1 <1>                0.0621
     33 HAG        -34.4349   1.5719   7.8279 H              1 <1>                0.0654
     34 HAJ        -35.9441   3.2925  11.4438 H              1 <1>                0.0654
     35 HAK        -35.8910   5.5251  10.4048 H              1 <1>                0.0621
     36 HAM1       -31.5608   7.8689   6.9055 H              1 <1>                0.0453
     37 HAM2       -32.4944   9.0155   5.9414 H              1 <1>                0.0453
     38 HAN        -31.5685   9.3425   8.8149 H              1 <1>                0.0656
     39 HAQ        -31.7876  12.3185   6.9645 H              1 <1>                0.0622
     40 HAR        -29.8563  13.4365   5.8940 H              1 <1>                0.0655
     41 HAW        -29.4742   8.7438   7.3634 H              1 <1>                0.0659
     42 HNAL       -34.3030   8.4801   6.8953 H              1 <1>                0.1225
     43 HOAI       -34.3566   0.6638  10.2552 H              1 <1>                0.2921
     44 HOAO       -33.5378  10.7110   7.3170 H              1 <1>                0.2103
     45 HOAT       -26.7091  11.8779   5.6927 H              1 <1>                0.2923
     46 HOAV       -26.9355   9.9487   5.4123 H              1 <1>                0.2923
     47 ****       -33.5965   8.1740   8.4175 LP             1 <1>                0.0000
     48 ****       -35.8684   0.4702   9.7674 LP             1 <1>                0.0000
     49 ****       -35.5413   1.1345  11.2228 LP             1 <1>                0.0000
     50 ****       -32.6357  11.5638   8.3274 LP             1 <1>                0.0000
     51 ****       -33.5383  10.3148   8.8678 LP             1 <1>                0.0000
     52 ****       -27.4704  13.2842   5.7575 LP             1 <1>                0.0000
     53 ****       -27.6241  12.3130   4.4538 LP             1 <1>                0.0000
     54 ****       -27.4884   8.7391   6.3025 LP             1 <1>                0.0000
     55 ****       -26.6658   9.9712   6.9896 LP             1 <1>                0.0000
@<TRIPOS>BOND
    1    1    2 1     
    2    1   24 1     
    3    1   25 1     
    4    1   26 1     
    5    2    3 1     
    6    2    4 1     
    7    2   19 1     
    8    3   27 1     
    9    3   28 1     
   10    3   29 1     
   11    4    5 1     
   12    4   30 1     
   13    4   31 1     
   14    5    6 ar    
   15    5   10 ar    
   16    6    7 ar    
   17    6   32 1     
   18    7    8 ar    
   19    7   33 1     
   20    8    9 ar    
   21    8   20 1     
   22    9   10 ar    
   23    9   34 1     
   24   10   35 1     
   25   11   12 1     
   26   11   19 1     
   27   11   36 1     
   28   11   37 1     
   29   12   13 1     
   30   12   21 1     
   31   12   38 1     
   32   13   14 ar    
   33   13   18 ar    
   34   14   15 ar    
   35   14   39 1     
   36   15   16 ar    
   37   15   40 1     
   38   16   17 ar    
   39   16   22 1     
   40   17   18 ar    
   41   17   23 1     
   42   18   41 1     
   43   19   42 1     
   44   20   43 1     
   45   21   44 1     
   46   22   45 1     
   47   23   46 1     
   48   19   47 1     
   49   20   48 1     
   50   20   49 1     
   51   21   50 1     
   52   21   51 1     
   53   22   52 1     
   54   22   53 1     
   55   23   54 1     
   56   23   55 1     
@<TRIPOS>SUBSTRUCTURE
      1 ****           1
@<TRIPOS>SET
LONE_PAIRS      STATIC     ATOMS    <user>   **** ""
9 47 48 49 50 51 52 53 54 55
DONOR_HYDROGENS      STATIC     ATOMS    <user>   **** ""
5 42 43 44 45 46
ATOM$BLUE        STATIC     ATOMS    COLORGROUP SYSTEM
9 47 48 49 50 51 52 53 54 55
ATOM$RED        STATIC     ATOMS    COLORGROUP SYSTEM
5 42 43 44 45 46
@<TRIPOS>COMMENT
> <Gold.Version>
5.5

> <Gold.Id.Protein>
unknown|dok_beta2|pdb

> <Gold.Protein.RotatedTorsions>
[ 4175 4166 4165 4163 ] final   51.20 input -179.98 | X-H torsion
[ 1294 1290 1288 1285 ] final   19.11 input -179.99 | X-H torsion
[ 4033 4024 4023 4021 ] final   26.10 input  179.98 | X-H torsion
[ 1412 1408 1406 1403 ] final   24.70 input -179.99 | X-H torsion
[ 2830 2825 2824 2821 ] final -118.72 input -179.98 | X-H torsion
[ 2723 2714 2713 2711 ] final  -65.16 input -179.98 | X-H torsion
[ 2773 2768 2767 2764 ] final -101.63 input  180.00 | X-H torsion

> <Gold.Protein.ActiveResidues>
 TRP109  THR110  ASP113  VAL114  VAL117  THR118  PHE193  TYR199  SER203  SER207 
 PHE208  TRP286  PHE289  PHE290  ASN293  TYR308  ASN312  TYR316 

> <Gold.Protein.RotatedAtoms>
  -35.4203    4.6397    1.7482 H   0  0  0  0  0  0  0  0  0  0  0  0  # atno 1294 bound_to 1290
  -28.0699   14.9855    3.1942 H   0  0  0  0  0  0  0  0  0  0  0  0  # atno 1412 bound_to 1408
  -25.9612    8.4289    2.0879 H   0  0  0  0  0  0  0  0  0  0  0  0  # atno 2723 bound_to 2714
  -24.5356   10.0866    3.8698 H   0  0  0  0  0  0  0  0  0  0  0  0  # atno 2773 bound_to 2768
  -25.0026   13.6709    2.2449 H   0  0  0  0  0  0  0  0  0  0  0  0  # atno 2830 bound_to 2825
  -29.3481    6.0602   10.6352 H   0  0  0  0  0  0  0  0  0  0  0  0  # atno 4033 bound_to 4024
  -37.7733    8.6556    7.5523 H   0  0  0  0  0  0  0  0  0  0  0  0  # atno 4175 bound_to 4166
  -36.5879    8.4006    8.5966 LP  0  0  0  0  0  0  0  0  0  0  0  0  # atno 4597 bound_to 4166
  -36.3536    9.3439    7.2844 LP  0  0  0  0  0  0  0  0  0  0  0  0  # atno 4598 bound_to 4166
  -34.1413    4.2331    2.6202 LP  0  0  0  0  0  0  0  0  0  0  0  0  # atno 4603 bound_to 1290
  -34.3855    3.5788    1.1440 LP  0  0  0  0  0  0  0  0  0  0  0  0  # atno 4604 bound_to 1290
  -27.9317    5.5166   11.1458 LP  0  0  0  0  0  0  0  0  0  0  0  0  # atno 4607 bound_to 4024
  -28.4068    7.0433   11.4776 LP  0  0  0  0  0  0  0  0  0  0  0  0  # atno 4608 bound_to 4024
  -26.5512   15.0833    2.6990 LP  0  0  0  0  0  0  0  0  0  0  0  0  # atno 4611 bound_to 1408
  -27.7131   14.4975    1.7124 LP  0  0  0  0  0  0  0  0  0  0  0  0  # atno 4612 bound_to 1408
  -24.0997   12.6952    3.1354 LP  0  0  0  0  0  0  0  0  0  0  0  0  # atno 4613 bound_to 2825
  -23.4239   13.9256    2.3011 LP  0  0  0  0  0  0  0  0  0  0  0  0  # atno 4614 bound_to 2825

> <Gold.Score>
     Score     S(PLP)   S(hbond)     S(cho)   S(metal)  DE(clash)   DE(tors)     intcor
     72.52     -65.87       2.90       0.00       0.00       0.75       0.97       0.63

> <Gold.PLP.Fitness>
72.5212

> <Gold.PLP.PLP>
-65.8679

> <Gold.PLP.part.hbond>
-5.0000

> <Gold.PLP.part.metal>
0.0000

> <Gold.PLP.part.buried>
-9.0933

> <Gold.PLP.part.nonpolar>
-53.0013

> <Gold.PLP.part.repulsive>
0.0000

> <Gold.PLP.ligand.clash>
0.7540

> <Gold.PLP.ligand.torsion>
0.9705

> <Gold.PLP.Chemscore.Hbond>
2.9048

> <Gold.PLP.Chemscore.CHOScore>
0.0000

> <Gold.PLP.Chemscore.Metal>
0.0000

> <Gold.Chemscore.Hbonds>
donor molecule, donor type, donor heavy atom, donor atom, acceptor molecule, acceptor atom, score
      L1  H    19    42       P1  1335  1.00
      L1  H    21    44       P1  1334  1.00
      P1  H  4097  4104       L1    21  0.90

> <Gold.PLP.Chemscore.Internal.Correction>
0.6338

