#       Name:                C:\Users\porto\OneDrive\projekt\beta2\ligandy\L_2rh1.pdb L_2rh1.pdb 1
#       Creating user name   student
#       Creation time:       Mon Apr 01 15:19:05 2019


#       File generated by GOLD software.
#

@<TRIPOS>MOLECULE
C:\Users\porto\OneDrive\projekt\beta2\ligandy\L_2rh1.pdb L_2rh1.pdb 1|2rh1|mol2|1|dock5
    49    51     1
SMALL
GASTEIGER


@<TRIPOS>ATOM
      1 C1         -25.6069   7.2685   6.9898 C.ar           1 <1>               -0.0598
      2 C2         -25.0111   8.3166   6.2975 C.ar           1 <1>               -0.0378
      3 C3         -25.7251   9.4645   6.0453 C.ar           1 <1>                0.0476
      4 C4         -27.1017   9.5370   6.5218 C.ar           1 <1>                0.0109
      5 C5         -27.6778   8.4831   7.2079 C.ar           1 <1>               -0.0519
      6 C6         -26.9221   7.3487   7.4387 C.ar           1 <1>               -0.0611
      7 N7         -25.4539  10.6535   5.4077 N.pl3          1 <1>               -0.3540
      8 C8         -26.5623  11.4666   5.4524 C.ar           1 <1>                0.0510
      9 C9         -27.6096  10.7442   6.1650 C.ar           1 <1>                0.0490
     10 C10        -26.8397  12.7194   4.9912 C.ar           1 <1>               -0.0375
     11 C11        -28.0864  13.2843   5.1985 C.ar           1 <1>               -0.0563
     12 C12        -29.0808  12.5941   5.8774 C.ar           1 <1>               -0.0192
     13 C13        -28.8584  11.3045   6.3754 C.ar           1 <1>                0.1303
     14 O14        -29.8299  10.6235   7.0414 O.3            1 <1>               -0.4887
     15 C15        -31.0522  11.1948   7.4664 C.3            1 <1>                0.1166
     16 C16        -31.9144  10.1199   8.0794 C.3            1 <1>                0.1015
     17 O17        -33.2589  10.5683   8.1027 O.3            1 <1>               -0.3872
     18 C18        -31.7804   8.8243   7.2734 C.3            1 <1>                0.0254
     19 N19        -32.6222   7.7546   7.7997 N.3            1 <1>               -0.3112
     20 C20        -32.2267   6.3611   7.6939 C.3            1 <1>                0.0021
     21 C21        -33.4556   5.4763   7.8941 C.3            1 <1>               -0.0499
     22 C22        -31.1187   6.0598   8.7076 C.3            1 <1>               -0.0499
     23 H1         -25.0255   6.3772   7.1772 H              1 <1>                0.0618
     24 H2         -23.9896   8.2285   5.9590 H              1 <1>                0.0638
     25 H5         -28.6986   8.5567   7.5517 H              1 <1>                0.0624
     26 H6         -27.3615   6.5198   7.9733 H              1 <1>                0.0618
     27 HN7        -24.5436  10.8115   4.9988 H              1 <1>                0.1659
     28 H10        -26.0844  13.2791   4.4599 H              1 <1>                0.0638
     29 H11        -28.2974  14.2770   4.8294 H              1 <1>                0.0619
     30 H12        -30.0476  13.0510   6.0297 H              1 <1>                0.0654
     31 H151       -31.5674  11.6293   6.6096 H              1 <1>                0.0723
     32 H152       -30.8531  11.9673   8.2088 H              1 <1>                0.0723
     33 H16        -31.5829   9.9378   9.1018 H              1 <1>                0.0640
     34 HO17       -33.5503  10.7529   7.2073 H              1 <1>                0.2100
     35 H181       -30.7395   8.5012   7.2769 H              1 <1>                0.0450
     36 H182       -32.0449   9.0151   6.2331 H              1 <1>                0.0450
     37 HN19       -32.7497   7.8844   8.7928 H              1 <1>                0.1223
     38 H20        -31.8353   6.1873   6.6917 H              1 <1>                0.0455
     39 H211       -33.1662   4.4285   7.8156 H              1 <1>                0.0245
     40 H212       -33.8817   5.6620   8.8801 H              1 <1>                0.0245
     41 H213       -34.1980   5.7052   7.1291 H              1 <1>                0.0245
     42 H221       -30.8246   5.0132   8.6249 H              1 <1>                0.0245
     43 H222       -30.2570   6.6961   8.5041 H              1 <1>                0.0245
     44 H223       -31.4842   6.2560   9.7158 H              1 <1>                0.0245
     45 ****       -29.3938  10.2715   7.8696 LP             1 <1>                0.0000
     46 ****       -30.0810   9.8600   6.4465 LP             1 <1>                0.0000
     47 ****       -33.3230  11.4012   8.6524 LP             1 <1>                0.0000
     48 ****       -33.8397   9.8594   8.5027 LP             1 <1>                0.0000
     49 ****       -33.4134   7.8617   7.1976 LP             1 <1>                0.0000
@<TRIPOS>BOND
    1    1    6 ar    
    2    1    2 ar    
    3    1   23 1     
    4    2    3 ar    
    5    2   24 1     
    6    3    4 ar    
    7    3    7 ar    
    8    4    5 ar    
    9    4    9 ar    
   10    5    6 ar    
   11    5   25 1     
   12    6   26 1     
   13    7    8 ar    
   14    7   27 1     
   15    8    9 ar    
   16    8   10 ar    
   17    9   13 ar    
   18   10   11 ar    
   19   10   28 1     
   20   11   12 ar    
   21   11   29 1     
   22   12   13 ar    
   23   12   30 1     
   24   13   14 1     
   25   14   15 1     
   26   15   16 1     
   27   15   31 1     
   28   15   32 1     
   29   16   18 1     
   30   16   17 1     
   31   16   33 1     
   32   17   34 1     
   33   18   19 1     
   34   18   35 1     
   35   18   36 1     
   36   19   20 1     
   37   19   37 1     
   38   20   21 1     
   39   20   22 1     
   40   20   38 1     
   41   21   39 1     
   42   21   40 1     
   43   21   41 1     
   44   22   42 1     
   45   22   43 1     
   46   22   44 1     
   47   14   45 1     
   48   14   46 1     
   49   17   47 1     
   50   17   48 1     
   51   19   49 1     
@<TRIPOS>SUBSTRUCTURE
      1 ****           1
@<TRIPOS>SET
LONE_PAIRS      STATIC     ATOMS    <user>   **** ""
5 45 46 47 48 49
DONOR_HYDROGENS      STATIC     ATOMS    <user>   **** ""
3 27 34 37
ATOM$BLUE        STATIC     ATOMS    COLORGROUP SYSTEM
5 45 46 47 48 49
ATOM$RED        STATIC     ATOMS    COLORGROUP SYSTEM
3 27 34 37
@<TRIPOS>COMMENT
> <Gold.Version>
5.5

> <Gold.Id.Protein>
unknown|dok_beta2|pdb

> <Gold.Protein.RotatedTorsions>
[ 4175 4166 4165 4163 ] final -165.25 input -179.98 | X-H torsion
[ 1294 1290 1288 1285 ] final    5.05 input -179.99 | X-H torsion
[ 4033 4024 4023 4021 ] final  133.40 input  179.98 | X-H torsion
[ 1412 1408 1406 1403 ] final    3.25 input -179.99 | X-H torsion
[ 2830 2825 2824 2821 ] final   10.48 input -179.98 | X-H torsion
[ 2723 2714 2713 2711 ] final   90.41 input -179.98 | X-H torsion
[ 2773 2768 2767 2764 ] final -140.94 input  180.00 | X-H torsion

> <Gold.Protein.ActiveResidues>
 TRP109  THR110  ASP113  VAL114  VAL117  THR118  PHE193  TYR199  SER203  SER207 
 PHE208  TRP286  PHE289  PHE290  ASN293  TYR308  ASN312  TYR316 

> <Gold.Protein.RotatedAtoms>
  -35.3645    4.7135    1.9494 H   0  0  0  0  0  0  0  0  0  0  0  0  # atno 1294 bound_to 1290
  -27.7919   15.0958    3.3489 H   0  0  0  0  0  0  0  0  0  0  0  0  # atno 1412 bound_to 1408
  -26.9157    7.0134    1.6253 H   0  0  0  0  0  0  0  0  0  0  0  0  # atno 2723 bound_to 2714
  -24.7244    9.6241    3.5220 H   0  0  0  0  0  0  0  0  0  0  0  0  # atno 2773 bound_to 2768
  -23.3833   13.8207    2.4055 H   0  0  0  0  0  0  0  0  0  0  0  0  # atno 2830 bound_to 2825
  -28.5987    7.0523   11.3972 H   0  0  0  0  0  0  0  0  0  0  0  0  # atno 4033 bound_to 4024
  -36.1555    9.2348    7.5885 H   0  0  0  0  0  0  0  0  0  0  0  0  # atno 4175 bound_to 4166
  -37.6775    8.8699    7.2547 LP  0  0  0  0  0  0  0  0  0  0  0  0  # atno 4597 bound_to 4166
  -36.9504    8.2709    8.5885 LP  0  0  0  0  0  0  0  0  0  0  0  0  # atno 4598 bound_to 4166
  -34.0064    4.0805    2.5117 LP  0  0  0  0  0  0  0  0  0  0  0  0  # atno 4603 bound_to 1290
  -34.5785    3.6545    1.0428 LP  0  0  0  0  0  0  0  0  0  0  0  0  # atno 4604 bound_to 1290
  -29.2945    5.8682   10.5749 LP  0  0  0  0  0  0  0  0  0  0  0  0  # atno 4607 bound_to 4024
  -27.8246    5.6585   11.2548 LP  0  0  0  0  0  0  0  0  0  0  0  0  # atno 4608 bound_to 4024
  -26.5333   14.9658    2.3690 LP  0  0  0  0  0  0  0  0  0  0  0  0  # atno 4611 bound_to 1408
  -28.0205   14.5000    1.8812 LP  0  0  0  0  0  0  0  0  0  0  0  0  # atno 4612 bound_to 1408
  -24.9621   13.7834    2.1485 LP  0  0  0  0  0  0  0  0  0  0  0  0  # atno 4613 bound_to 2825
  -24.2498   12.6813    3.1205 LP  0  0  0  0  0  0  0  0  0  0  0  0  # atno 4614 bound_to 2825

> <Gold.Score>
     Score     S(PLP)   S(hbond)     S(cho)   S(metal)  DE(clash)   DE(tors)     intcor
     86.29     -78.37       3.00       0.00       0.00       0.00       0.61       0.13

> <Gold.PLP.Fitness>
86.2886

> <Gold.PLP.PLP>
-78.3727

> <Gold.PLP.part.hbond>
-4.2533

> <Gold.PLP.part.metal>
0.0000

> <Gold.PLP.part.buried>
-9.9738

> <Gold.PLP.part.nonpolar>
-65.4321

> <Gold.PLP.part.repulsive>
0.0849

> <Gold.PLP.ligand.clash>
0.0000

> <Gold.PLP.ligand.torsion>
0.6088

> <Gold.PLP.Chemscore.Hbond>
3.0000

> <Gold.PLP.Chemscore.CHOScore>
0.0000

> <Gold.PLP.Chemscore.Metal>
0.0000

> <Gold.Chemscore.Hbonds>
donor molecule, donor type, donor heavy atom, donor atom, acceptor molecule, acceptor atom, score
      L1  H    17    34       P1  1334  1.00
      L1  H    19    37       P1  4098  1.00
      P1  H  4097  4104       L1    17  1.00

> <Gold.PLP.Chemscore.Internal.Correction>
0.1334

