#       Name:                C:\Users\porto\OneDrive\projekt\beta2\ligandy\L_3ny8.pdb L_3ny8.pdb 1
#       Creating user name   student
#       Creation time:       Mon Apr 08 15:42:26 2019


#       File generated by GOLD software.
#

@<TRIPOS>MOLECULE
C:\Users\porto\OneDrive\projekt\beta2\ligandy\L_3ny8.pdb L_3ny8.pdb 1|3ny8|mol2|1|dock1
    52    53     1
SMALL
GASTEIGER


@<TRIPOS>ATOM
      1 C1         -27.0402  10.6061   6.3089 C.3            1 <1>               -0.0268
      2 N1         -34.8277   6.3832   8.7679 N.3            1 <1>               -0.3087
      3 O1         -30.8162   7.8069   7.5594 O.3            1 <1>               -0.4891
      4 C2         -26.7955   9.1403   6.0698 C.3            1 <1>               -0.0449
      5 O2         -32.2130   6.3552   9.6910 O.3            1 <1>               -0.3869
      6 C3         -27.7924   8.3681   6.9065 C.3            1 <1>               -0.0237
      7 C4         -28.9980   9.3405   6.9401 C.ar           1 <1>               -0.0023
      8 C5         -28.5531  10.6243   6.5927 C.ar           1 <1>               -0.0378
      9 C6         -29.4650  11.6694   6.5064 C.ar           1 <1>               -0.0468
     10 C7         -28.9869  13.0563   6.0995 C.3            1 <1>               -0.0394
     11 C8         -30.8127  11.4603   6.7767 C.ar           1 <1>               -0.0551
     12 C9         -31.2665  10.1860   7.1131 C.ar           1 <1>               -0.0194
     13 C10        -30.3634   9.1147   7.1778 C.ar           1 <1>                0.1241
     14 C11        -32.2037   7.4519   7.5435 C.3            1 <1>                0.1169
     15 C12        -32.4290   6.1234   8.3174 C.3            1 <1>                0.1041
     16 C13        -33.8531   5.5325   8.0895 C.3            1 <1>                0.0342
     17 C14        -34.2038   5.5021   6.6078 C.3            1 <1>               -0.0472
     18 C15        -35.6452   5.6826   9.7410 C.3            1 <1>                0.0023
     19 C16        -36.7972   6.5844  10.1583 C.3            1 <1>               -0.0499
     20 C17        -36.2348   4.4257   9.1093 C.3            1 <1>               -0.0499
     21 H11        -26.8424  11.1570   5.3890 H              1 <1>                0.0313
     22 H12        -26.5043  10.9175   7.2056 H              1 <1>                0.0313
     23 HN1        -34.3458   7.1212   9.2603 H              1 <1>                0.1225
     24 H21        -25.7836   8.8850   6.3846 H              1 <1>                0.0272
     25 H22        -26.9534   8.9134   5.0156 H              1 <1>                0.0272
     26 HO2        -32.7194   7.1211   9.9703 H              1 <1>                0.2100
     27 H31        -27.3980   8.2516   7.9157 H              1 <1>                0.0314
     28 H32        -28.0791   7.4604   6.3747 H              1 <1>                0.0314
     29 H71        -29.8335  13.7432   6.0860 H              1 <1>                0.0278
     30 H72        -28.2446  13.4093   6.8144 H              1 <1>                0.0278
     31 H73        -28.5406  13.0100   5.1060 H              1 <1>                0.0278
     32 H8         -31.5077  12.2856   6.7262 H              1 <1>                0.0621
     33 H9         -32.3137  10.0237   7.3240 H              1 <1>                0.0654
     34 H111       -32.5362   7.3318   6.5127 H              1 <1>                0.0723
     35 H112       -32.7878   8.2465   8.0086 H              1 <1>                0.0723
     36 H12        -31.6954   5.3951   7.9716 H              1 <1>                0.0643
     37 H13        -33.9011   4.5232   8.4979 H              1 <1>                0.0484
     38 H141       -33.4896   4.8724   6.0778 H              1 <1>                0.0245
     39 H142       -35.2079   5.0988   6.4801 H              1 <1>                0.0245
     40 H143       -34.1646   6.5138   6.2037 H              1 <1>                0.0245
     41 H15        -35.0453   5.4168  10.6112 H              1 <1>                0.0455
     42 H161       -37.4174   6.0670  10.8899 H              1 <1>                0.0245
     43 H162       -36.4021   7.4987  10.6002 H              1 <1>                0.0245
     44 H163       -37.3988   6.8347   9.2839 H              1 <1>                0.0245
     45 H171       -36.8477   3.9022   9.8438 H              1 <1>                0.0245
     46 H172       -36.8508   4.7026   8.2540 H              1 <1>                0.0245
     47 H173       -35.4278   3.7721   8.7788 H              1 <1>                0.0245
     48 ****       -35.4301   6.7296   8.0487 LP             1 <1>                0.0000
     49 ****       -30.5008   7.6636   8.4975 LP             1 <1>                0.0000
     50 ****       -30.3547   7.1617   6.9505 LP             1 <1>                0.0000
     51 ****       -31.2403   6.5222   9.8518 LP             1 <1>                0.0000
     52 ****       -32.5046   5.5542  10.2140 LP             1 <1>                0.0000
@<TRIPOS>BOND
    1    1    4 1     
    2    1    8 1     
    3    1   21 1     
    4    1   22 1     
    5    2   16 1     
    6    2   18 1     
    7    2   23 1     
    8    3   13 1     
    9    3   14 1     
   10    4    6 1     
   11    4   24 1     
   12    4   25 1     
   13    5   15 1     
   14    5   26 1     
   15    6    7 1     
   16    6   27 1     
   17    6   28 1     
   18    7    8 ar    
   19    7   13 ar    
   20    8    9 ar    
   21    9   10 1     
   22    9   11 ar    
   23   10   29 1     
   24   10   30 1     
   25   10   31 1     
   26   11   12 ar    
   27   11   32 1     
   28   12   13 ar    
   29   12   33 1     
   30   14   15 1     
   31   14   34 1     
   32   14   35 1     
   33   15   16 1     
   34   15   36 1     
   35   16   17 1     
   36   16   37 1     
   37   17   38 1     
   38   17   39 1     
   39   17   40 1     
   40   18   19 1     
   41   18   20 1     
   42   18   41 1     
   43   19   42 1     
   44   19   43 1     
   45   19   44 1     
   46   20   45 1     
   47   20   46 1     
   48   20   47 1     
   49    2   48 1     
   50    3   49 1     
   51    3   50 1     
   52    5   51 1     
   53    5   52 1     
@<TRIPOS>SUBSTRUCTURE
      1 ****           1
@<TRIPOS>SET
LONE_PAIRS      STATIC     ATOMS    <user>   **** ""
5 48 49 50 51 52
DONOR_HYDROGENS      STATIC     ATOMS    <user>   **** ""
2 23 26
ATOM$BLUE        STATIC     ATOMS    COLORGROUP SYSTEM
5 48 49 50 51 52
ATOM$RED        STATIC     ATOMS    COLORGROUP SYSTEM
2 23 26
@<TRIPOS>COMMENT
> <Gold.Version>
5.5

> <Gold.Id.Protein>
unknown|dok_beta2|pdb

> <Gold.Protein.RotatedTorsions>
[ 4175 4166 4165 4163 ] final -122.15 input -179.98 | X-H torsion
[ 1294 1290 1288 1285 ] final  -32.91 input -179.99 | X-H torsion
[ 4033 4024 4023 4021 ] final -171.24 input  179.98 | X-H torsion
[ 1412 1408 1406 1403 ] final   29.61 input -179.99 | X-H torsion
[ 2830 2825 2824 2821 ] final -137.23 input -179.98 | X-H torsion
[ 2723 2714 2713 2711 ] final  -40.72 input -179.98 | X-H torsion
[ 2773 2768 2767 2764 ] final  -74.53 input  180.00 | X-H torsion

> <Gold.Protein.ActiveResidues>
 TRP109  THR110  ASP113  VAL114  VAL117  THR118  PHE193  TYR199  SER203  SER207 
 PHE208  TRP286  PHE289  PHE290  ASN293  TYR308  ASN312  TYR316 

> <Gold.Protein.RotatedAtoms>
  -35.0194    4.7424    2.4255 H   0  0  0  0  0  0  0  0  0  0  0  0  # atno 1294 bound_to 1290
  -28.1228   14.9572    3.1450 H   0  0  0  0  0  0  0  0  0  0  0  0  # atno 1412 bound_to 1408
  -25.9507    8.3459    1.7141 H   0  0  0  0  0  0  0  0  0  0  0  0  # atno 2723 bound_to 2714
  -24.3091   10.4443    3.8920 H   0  0  0  0  0  0  0  0  0  0  0  0  # atno 2773 bound_to 2768
  -25.0793   13.4427    2.4079 H   0  0  0  0  0  0  0  0  0  0  0  0  # atno 2830 bound_to 2825
  -27.9188    6.5897   11.5735 H   0  0  0  0  0  0  0  0  0  0  0  0  # atno 4033 bound_to 4024
  -36.0864    8.8919    8.1537 H   0  0  0  0  0  0  0  0  0  0  0  0  # atno 4175 bound_to 4166
  -37.1443    9.2331    7.0025 LP  0  0  0  0  0  0  0  0  0  0  0  0  # atno 4597 bound_to 4166
  -37.5556    8.2651    8.2516 LP  0  0  0  0  0  0  0  0  0  0  0  0  # atno 4598 bound_to 4166
  -33.8532    3.7151    2.0435 LP  0  0  0  0  0  0  0  0  0  0  0  0  # atno 4603 bound_to 1290
  -35.0914    3.9899    1.0149 LP  0  0  0  0  0  0  0  0  0  0  0  0  # atno 4604 bound_to 1290
  -29.3478    6.6947   10.8598 LP  0  0  0  0  0  0  0  0  0  0  0  0  # atno 4607 bound_to 4024
  -28.4794    5.3137   10.7862 LP  0  0  0  0  0  0  0  0  0  0  0  0  # atno 4608 bound_to 4024
  -26.5733   15.1062    2.7733 LP  0  0  0  0  0  0  0  0  0  0  0  0  # atno 4611 bound_to 1408
  -27.6358   14.5040    1.6894 LP  0  0  0  0  0  0  0  0  0  0  0  0  # atno 4612 bound_to 1408
  -23.8090   12.7796    3.1198 LP  0  0  0  0  0  0  0  0  0  0  0  0  # atno 4613 bound_to 2825
  -23.6348   14.0792    2.1466 LP  0  0  0  0  0  0  0  0  0  0  0  0  # atno 4614 bound_to 2825

> <Gold.Score>
     Score         DG    S(hbond)    S(metal)    S(lipo)     H(rot)  DE(clash)    DE(int)     intcor
     33.76     -34.95       1.99        0.00     238.27       1.98       0.13       1.06       0.14

> <Gold.Chemscore.Fitness>
33.7560

> <Gold.Chemscore.DG>
-34.9496

> <Gold.Chemscore.ZeroCoef>
-5.4800

> <Gold.Chemscore.Hbond>
1.9948

> <Gold.Chemscore.Metal>
0.0000

> <Gold.Chemscore.Lipo>
238.2688

> <Gold.Chemscore.Internal_Hbond>
0.0000

> <Gold.Chemscore.DEClash>
0.1309

> <Gold.Chemscore.DEInternal>
1.0627

> <Gold.Chemscore.Rot>
1.9807

> <Gold.Chemscore.Internal.Correction>
0.1366

> <Gold.Chemscore.Hbonds>
donor molecule, donor type, donor heavy atom, donor atom, acceptor molecule, acceptor atom, score
      L1  H     2    23       P1  4098  1.00
      L1  H     5    26       P1  4098  1.00

> <Gold.Chemscore.Hbond.Weighted>
-6.6627

> <Gold.Chemscore.Metal.Weighted>
-0.0000

> <Gold.Chemscore.Lipo.Weighted>
-27.8774

> <Gold.Chemscore.Internal_Hbond.Weighted>
0.0000

> <Gold.Chemscore.DEClash.Weighted>
0.1309

> <Gold.Chemscore.DEInternal.Weighted>
1.0627

> <Gold.Chemscore.Rot.Weighted>
5.0706

> <Gold.Chemscore.Internal.Correction.Weighted>
0.1366

