#       Name:                C:\Users\porto\OneDrive\projekt\beta2\ligandy\L_4lde.pdb L_4lde.pdb 1
#       Creating user name   student
#       Creation time:       Mon Apr 08 14:21:52 2019


#       File generated by GOLD software.
#

@<TRIPOS>MOLECULE
C:\Users\porto\OneDrive\projekt\beta2\ligandy\L_4lde.pdb L_4lde.pdb 1|4lde|mol2|1|dock11
    62    64     1
SMALL
GASTEIGER


@<TRIPOS>ATOM
      1 CAA        -36.2495   5.6613  10.8079 C.3            1 <1>               -0.0395
      2 CAB        -33.7526   6.1070   6.0202 C.3            1 <1>               -0.0467
      3 CAC        -32.6437   5.8314   8.2385 C.3            1 <1>               -0.0467
      4 CAG        -35.3918   2.1692   9.6862 C.ar           1 <1>               -0.0615
      5 CAH        -34.8899   2.3814   8.4072 C.ar           1 <1>               -0.0615
      6 CAI        -35.8283   3.2386  10.4567 C.ar           1 <1>               -0.0586
      7 CAJ        -34.8172   3.6670   7.9035 C.ar           1 <1>               -0.0583
      8 CAK        -29.9383  12.3843   6.3393 C.ar           1 <1>               -0.0178
      9 CAL        -30.9913  11.6879   6.9265 C.ar           1 <1>               -0.0490
     10 CAM        -28.0383   8.0767   7.8047 C.3            1 <1>                0.1656
     11 CAN        -32.4009   8.4784   7.0305 C.3            1 <1>                0.0267
     12 CAO        -35.1729   6.1338   8.0787 C.3            1 <1>               -0.0096
     13 CAS        -26.9876   8.7637   6.9530 C.2            1 <1>                0.2550
     14 CAT        -35.7634   4.5264   9.9463 C.ar           1 <1>               -0.0472
     15 CAU        -28.7234  11.7505   6.1071 C.ar           1 <1>                0.1416
     16 CAV        -35.2703   4.7419   8.6641 C.ar           1 <1>               -0.0427
     17 CAW        -30.8369  10.3528   7.2836 C.ar           1 <1>                0.0258
     18 CAX        -28.5619  10.4279   6.4677 C.ar           1 <1>                0.1180
     19 CAY        -29.6071   9.7315   7.0521 C.ar           1 <1>                0.1515
     20 CAZ        -31.9759   9.6359   7.9177 C.3            1 <1>                0.0960
     21 NAP        -33.6310   7.9204   7.5511 N.3            1 <1>               -0.3080
     22 NAQ        -27.3821   9.8084   6.2316 N.am           1 <1>               -0.2769
     23 OAD        -25.8336   8.3637   6.9408 O.2            1 <1>               -0.2717
     24 OAE        -27.6863  12.4241   5.5324 O.3            1 <1>               -0.5048
     25 OAF        -33.1190  10.4890   8.0923 O.3            1 <1>               -0.3858
     26 OAR        -29.3576   8.4232   7.3692 O.3            1 <1>               -0.4804
     27 CBA        -33.8036   6.4840   7.4955 C.3            1 <1>                0.0176
     28 HAA1       -36.1333   6.6017  10.2701 H              1 <1>                0.0278
     29 HAA2       -37.3009   5.5093  11.0511 H              1 <1>                0.0278
     30 HAA3       -35.6659   5.6954  11.7279 H              1 <1>                0.0278
     31 HAB1       -34.5845   6.5766   5.4952 H              1 <1>                0.0247
     32 HAB2       -32.8118   6.4496   5.5891 H              1 <1>                0.0247
     33 HAB3       -33.8251   5.0240   5.9186 H              1 <1>                0.0247
     34 HAC1       -32.6867   6.1054   9.2926 H              1 <1>                0.0247
     35 HAC2       -32.7136   4.7481   8.1417 H              1 <1>                0.0247
     36 HAC3       -31.7002   6.1738   7.8132 H              1 <1>                0.0247
     37 HAG        -35.4443   1.1674  10.0869 H              1 <1>                0.0618
     38 HAH        -34.5582   1.5441   7.8112 H              1 <1>                0.0618
     39 HAI        -36.2168   3.0659  11.4496 H              1 <1>                0.0620
     40 HAJ        -34.4089   3.8382   6.9186 H              1 <1>                0.0620
     41 HAK        -30.0637  13.4208   6.0625 H              1 <1>                0.0655
     42 HAL        -31.9334  12.1845   7.1062 H              1 <1>                0.0623
     43 HAM1       -27.9107   8.3719   8.8461 H              1 <1>                0.0795
     44 HAM2       -27.9076   6.9962   7.7418 H              1 <1>                0.0795
     45 HAN1       -31.6247   7.7129   7.0351 H              1 <1>                0.0453
     46 HAN2       -32.5672   8.8409   6.0155 H              1 <1>                0.0453
     47 HAO1       -35.4377   6.8655   8.8420 H              1 <1>                0.0331
     48 HAO2       -35.9346   6.2562   7.3091 H              1 <1>                0.0331
     49 HAZ        -31.6629   9.2497   8.8880 H              1 <1>                0.0657
     50 HNAP       -33.7210   8.1577   8.5288 H              1 <1>                0.1225
     51 HNAQ       -26.7963  10.1576   5.4862 H              1 <1>                0.1551
     52 HOAE       -27.7618  12.3731   4.5770 H              1 <1>                0.2922
     53 HOAF       -33.6336  10.5056   7.2813 H              1 <1>                0.2103
     54 ****       -34.3169   8.3180   6.9416 LP             1 <1>                0.0000
     55 ****       -25.5721   7.5745   7.4965 LP             1 <1>                0.0000
     56 ****       -25.1504   8.8253   6.3750 LP             1 <1>                0.0000
     57 ****       -26.8215  12.0132   5.8208 LP             1 <1>                0.0000
     58 ****       -27.7119  13.3820   5.8181 LP             1 <1>                0.0000
     59 ****       -32.8130  11.4154   8.3118 LP             1 <1>                0.0000
     60 ****       -33.6849  10.1392   8.8389 LP             1 <1>                0.0000
     61 ****       -29.9890   8.1692   8.1019 LP             1 <1>                0.0000
     62 ****       -29.5550   7.8771   6.5550 LP             1 <1>                0.0000
@<TRIPOS>BOND
    1    1   14 1     
    2    1   28 1     
    3    1   29 1     
    4    1   30 1     
    5    2   27 1     
    6    2   31 1     
    7    2   32 1     
    8    2   33 1     
    9    3   27 1     
   10    3   34 1     
   11    3   35 1     
   12    3   36 1     
   13    4    5 ar    
   14    4    6 ar    
   15    4   37 1     
   16    5    7 ar    
   17    5   38 1     
   18    6   14 ar    
   19    6   39 1     
   20    7   16 ar    
   21    7   40 1     
   22    8    9 ar    
   23    8   15 ar    
   24    8   41 1     
   25    9   17 ar    
   26    9   42 1     
   27   10   13 1     
   28   10   26 1     
   29   10   43 1     
   30   10   44 1     
   31   11   20 1     
   32   11   21 1     
   33   11   45 1     
   34   11   46 1     
   35   12   16 1     
   36   12   27 1     
   37   12   47 1     
   38   12   48 1     
   39   13   22 am    
   40   13   23 2     
   41   14   16 ar    
   42   15   18 ar    
   43   15   24 1     
   44   17   19 ar    
   45   17   20 1     
   46   18   19 ar    
   47   18   22 1     
   48   19   26 1     
   49   20   25 1     
   50   20   49 1     
   51   21   27 1     
   52   21   50 1     
   53   22   51 1     
   54   24   52 1     
   55   25   53 1     
   56   21   54 1     
   57   23   55 1     
   58   23   56 1     
   59   24   57 1     
   60   24   58 1     
   61   25   59 1     
   62   25   60 1     
   63   26   61 1     
   64   26   62 1     
@<TRIPOS>SUBSTRUCTURE
      1 ****           1
@<TRIPOS>SET
LONE_PAIRS      STATIC     ATOMS    <user>   **** ""
9 54 55 56 57 58 59 60 61 62
DONOR_HYDROGENS      STATIC     ATOMS    <user>   **** ""
4 50 51 52 53
ATOM$BLUE        STATIC     ATOMS    COLORGROUP SYSTEM
9 54 55 56 57 58 59 60 61 62
ATOM$RED        STATIC     ATOMS    COLORGROUP SYSTEM
4 50 51 52 53
@<TRIPOS>COMMENT
> <Gold.Version>
5.5

> <Gold.Id.Protein>
unknown|dok_beta2|pdb

> <Gold.Protein.RotatedTorsions>
[ 4175 4166 4165 4163 ] final   80.06 input -179.98 | X-H torsion
[ 1294 1290 1288 1285 ] final   18.75 input -179.99 | X-H torsion
[ 4033 4024 4023 4021 ] final  108.98 input  179.98 | X-H torsion
[ 1412 1408 1406 1403 ] final  101.85 input -179.99 | X-H torsion
[ 2830 2825 2824 2821 ] final  -65.63 input -179.98 | X-H torsion
[ 2723 2714 2713 2711 ] final   -6.74 input -179.98 | X-H torsion
[ 2773 2768 2767 2764 ] final  -73.04 input  180.00 | X-H torsion

> <Gold.Protein.ActiveResidues>
 TRP109  THR110  ASP113  VAL114  VAL117  THR118  PHE193  TYR199  SER203  SER207 
 PHE208  TRP286  PHE289  PHE290  ASN293  TYR308  ASN312  TYR316 

> <Gold.Protein.RotatedAtoms>
  -35.4194    4.6420    1.7533 H   0  0  0  0  0  0  0  0  0  0  0  0  # atno 1294 bound_to 1290
  -28.2193   14.5753    2.1535 H   0  0  0  0  0  0  0  0  0  0  0  0  # atno 1412 bound_to 1408
  -26.0942    8.0445    1.3039 H   0  0  0  0  0  0  0  0  0  0  0  0  # atno 2723 bound_to 2714
  -24.2955   10.4630    3.8877 H   0  0  0  0  0  0  0  0  0  0  0  0  # atno 2773 bound_to 2768
  -24.3778   14.1233    2.0024 H   0  0  0  0  0  0  0  0  0  0  0  0  # atno 2830 bound_to 2825
  -28.9337    7.0242   11.2136 H   0  0  0  0  0  0  0  0  0  0  0  0  # atno 4033 bound_to 4024
  -37.6045    8.9264    7.2335 H   0  0  0  0  0  0  0  0  0  0  0  0  # atno 4175 bound_to 4166
  -37.0333    8.2532    8.5682 LP  0  0  0  0  0  0  0  0  0  0  0  0  # atno 4597 bound_to 4166
  -36.0841    9.2090    7.6451 LP  0  0  0  0  0  0  0  0  0  0  0  0  # atno 4598 bound_to 4166
  -34.1375    4.2293    2.6180 LP  0  0  0  0  0  0  0  0  0  0  0  0  # atno 4603 bound_to 1290
  -34.3903    3.5803    1.1409 LP  0  0  0  0  0  0  0  0  0  0  0  0  # atno 4604 bound_to 1290
  -29.0460    5.5563   10.5853 LP  0  0  0  0  0  0  0  0  0  0  0  0  # atno 4607 bound_to 4024
  -27.7242    5.9996   11.4356 LP  0  0  0  0  0  0  0  0  0  0  0  0  # atno 4608 bound_to 4024
  -27.4662   15.1751    3.4319 LP  0  0  0  0  0  0  0  0  0  0  0  0  # atno 4611 bound_to 1408
  -26.6423   14.8330    2.0641 LP  0  0  0  0  0  0  0  0  0  0  0  0  # atno 4612 bound_to 1408
  -24.8783   12.8725    2.8657 LP  0  0  0  0  0  0  0  0  0  0  0  0  # atno 4613 bound_to 2825
  -23.2967   13.2766    2.8236 LP  0  0  0  0  0  0  0  0  0  0  0  0  # atno 4614 bound_to 2825

> <Gold.Score>
     Score     S(PLP)   S(hbond)     S(cho)   S(metal)  DE(clash)   DE(tors)     intcor
     80.51     -74.85       2.93       0.00       0.00       1.58       0.91       0.28

> <Gold.PLP.Fitness>
80.5133

> <Gold.PLP.PLP>
-74.8468

> <Gold.PLP.part.hbond>
-4.2935

> <Gold.PLP.part.metal>
0.0000

> <Gold.PLP.part.buried>
-10.5181

> <Gold.PLP.part.nonpolar>
-61.4188

> <Gold.PLP.part.repulsive>
0.0507

> <Gold.PLP.ligand.clash>
1.5795

> <Gold.PLP.ligand.torsion>
0.9097

> <Gold.PLP.Chemscore.Hbond>
2.9280

> <Gold.PLP.Chemscore.CHOScore>
0.0000

> <Gold.PLP.Chemscore.Metal>
0.0000

> <Gold.Chemscore.Hbonds>
donor molecule, donor type, donor heavy atom, donor atom, acceptor molecule, acceptor atom, score
      L1  H    21    50       P1  4098  1.00
      L1  H    25    53       P1  1334  1.00
      P1  H  4097  4104       L1    25  0.93

> <Gold.PLP.Chemscore.Internal.Correction>
0.2815

