#       Name:                plp ligand
#       Creating user name   student
#       Creation time:       Mon Apr 08 14:20:59 2019


#       File generated by GOLD software.
#

@<TRIPOS>MOLECULE
plp ligand
    62    64     1
SMALL
GASTEIGER


@<TRIPOS>ATOM
      1 CAA         -3.4655  -3.6211  -1.2432 NONPOLAR       1 <1>               -0.0395
      2 CAB         -1.3665  -0.8551  -1.7232 NONPOLAR       1 <1>               -0.0467
      3 CAC         -0.5455  -1.4501   0.5568 NONPOLAR       1 <1>               -0.0467
      4 CAG         -3.4605  -4.6521   2.3798 NONPOLAR       1 <1>               -0.0615
      5 CAH         -3.2525  -3.4431   3.0338 NONPOLAR       1 <1>               -0.0615
      6 CAI         -3.5295  -4.6991   0.9938 NONPOLAR       1 <1>               -0.0586
      7 CAJ         -3.1225  -2.2791   2.2988 NONPOLAR       1 <1>               -0.0583
      8 CAK          2.7715   4.7719  -1.2842 NONPOLAR       1 <1>               -0.0178
      9 CAL          1.6125   4.2339  -0.7312 NONPOLAR       1 <1>               -0.0490
     10 CAM          4.1155   0.4649   0.7048 NONPOLAR       1 <1>                0.1656
     11 CAN         -0.2835   1.4099  -0.6292 NONPOLAR       1 <1>                0.0267
     12 CAO         -3.0275  -1.0271   0.1388 NONPOLAR       1 <1>               -0.0096
     13 CAS          5.2915   0.9689  -0.1102 NONPOLAR       1 <1>                0.2550
     14 CAT         -3.3895  -3.5321   0.2578 NONPOLAR       1 <1>               -0.0472
     15 CAU          3.9315   4.0099  -1.3562 NONPOLAR       1 <1>                0.1416
     16 CAV         -3.1725  -2.3221   0.9078 NONPOLAR       1 <1>               -0.0427
     17 CAW          1.6055   2.9299  -0.2482 NONPOLAR       1 <1>                0.0258
     18 CAX          3.9325   2.7179  -0.8702 NONPOLAR       1 <1>                0.1180
     19 CAY          2.7815   2.1789  -0.3192 NONPOLAR       1 <1>                0.1515
     20 CAZ          0.3555   2.3839   0.3458 NONPOLAR       1 <1>                0.0960
     21 NAP         -1.3875   0.7469   0.0318 DONACC         1 <1>               -0.3080
     22 NAQ          5.0595   1.9729  -0.9502 DONOR          1 <1>               -0.2769
     23 OAD          6.3975   0.4649   0.0108 ACCEPTOR       1 <1>               -0.2717
     24 OAE          5.0715   4.5279  -1.8962 DONACC         1 <1>               -0.5048
     25 OAF         -0.6065   3.4159   0.6188 DONACC         1 <1>               -0.3858
     26 OAR          2.8745   0.8889   0.1298 ACCEPTOR       1 <1>               -0.4804
     27 CBA         -1.5885  -0.6631  -0.2282 NONPOLAR       1 <1>                0.0176
     28 HAA1        -3.3385  -2.6281  -1.6732 0ÿj_          1 <1>                0.0278
     29 HAA2        -2.6775  -4.2791  -1.6092 0ÿj_          1 <1>                0.0278
     30 HAA3        -4.4365  -4.0211  -1.5352 0ÿj_          1 <1>                0.0278
     31 HAB1        -2.1155  -0.2901  -2.2782 0ÿj_          1 <1>                0.0247
     32 HAB2        -0.3715  -0.5001  -1.9922 0ÿj_          1 <1>                0.0247
     33 HAB3        -1.4535  -1.9131  -1.9712 0ÿj_          1 <1>                0.0247
     34 HAC1        -0.7105  -1.3081   1.6248 0ÿj_          1 <1>                0.0247
     35 HAC2        -0.6305  -2.5091   0.3138 0ÿj_          1 <1>                0.0247
     36 HAC3         0.4515  -1.0961   0.2938 0ÿj_          1 <1>                0.0247
     37 HAG         -3.5695  -5.5631   2.9498 0ÿj_          1 <1>                0.0618
     38 HAH         -3.1935  -3.4151   4.1118 0ÿj_          1 <1>                0.0618
     39 HAI         -3.6915  -5.6421   0.4928 0ÿj_          1 <1>                0.0620
     40 HAJ         -2.9815  -1.3351   2.8038 0ÿj_          1 <1>                0.0620
     41 HAK          2.7715   5.7849  -1.6592 0ÿj_          1 <1>                0.0655
     42 HAL          0.7135   4.8299  -0.6762 0ÿj_          1 <1>                0.0623
     43 HAM1         4.1915   0.8439   1.7238 0ÿj_          1 <1>                0.0795
     44 HAM2         4.1425  -0.6241   0.7468 0ÿj_          1 <1>                0.0795
     45 HAN1         0.4535   0.6679  -0.9372 0ÿj_          1 <1>                0.0453
     46 HAN2        -0.6545   1.9559  -1.4972 0ÿj_          1 <1>                0.0453
     47 HAO1        -3.4695  -0.2141   0.7148 0ÿj_          1 <1>                0.0331
     48 HAO2        -3.6295  -1.0761  -0.7682 0ÿj_          1 <1>                0.0331
     49 HAZ          0.5955   1.8609   1.2718 0ÿj_          1 <1>                0.0657
     50 HNAP        -1.2705   0.8149   1.0328 0ÿj_          1 <1>                0.1225
     51 HNAQ         5.7325   2.1949  -1.6702 0ÿj_          1 <1>                0.1551
     52 HOAE         5.7685   3.8689  -1.8652 0ÿj_          1 <1>                0.2922
     53 HOAF        -0.2305   4.0499   1.2348 0ÿj_          1 <1>                0.2103
     54 ****        -2.1786   1.2266  -0.3477 0ÿj_          1 <1>                0.0000
     55 ****         6.5359  -0.2891   0.6529 0ÿj_          1 <1>                0.0000
     56 ****         7.1647   0.8063  -0.5323 0ÿj_          1 <1>                0.0000
     57 ****         5.3513   5.3337  -1.3743 0ÿj_          1 <1>                0.0000
     58 ****         4.9015   4.7888  -2.8465 0ÿj_          1 <1>                0.0000
     59 ****        -1.4274   3.0087   1.0192 0ÿj_          1 <1>                0.0000
     60 ****        -0.8468   3.8812  -0.2331 0ÿj_          1 <1>                0.0000
     61 ****         2.1667   0.7643   0.8251 0ÿj_          1 <1>                0.0000
     62 ****         2.6869   0.2891  -0.6481 0ÿj_          1 <1>                0.0000
@<TRIPOS>BOND
    1    1   14 1     
    2    1   28 1     
    3    1   29 1     
    4    1   30 1     
    5    2   27 1     
    6    2   31 1     
    7    2   32 1     
    8    2   33 1     
    9    3   27 1     
   10    3   34 1     
   11    3   35 1     
   12    3   36 1     
   13    4    5 ar    
   14    4    6 ar    
   15    4   37 1     
   16    5    7 ar    
   17    5   38 1     
   18    6   14 ar    
   19    6   39 1     
   20    7   16 ar    
   21    7   40 1     
   22    8    9 ar    
   23    8   15 ar    
   24    8   41 1     
   25    9   17 ar    
   26    9   42 1     
   27   10   13 1     
   28   10   26 1     
   29   10   43 1     
   30   10   44 1     
   31   11   20 1     
   32   11   21 1     
   33   11   45 1     
   34   11   46 1     
   35   12   16 1     
   36   12   27 1     
   37   12   47 1     
   38   12   48 1     
   39   13   22 am    
   40   13   23 2     
   41   14   16 ar    
   42   15   18 ar    
   43   15   24 1     
   44   17   19 ar    
   45   17   20 1     
   46   18   19 ar    
   47   18   22 1     
   48   19   26 1     
   49   20   25 1     
   50   20   49 1     
   51   21   27 1     
   52   21   50 1     
   53   22   51 1     
   54   24   52 1     
   55   25   53 1     
   56   21   54 1     
   57   23   55 1     
   58   23   56 1     
   59   24   57 1     
   60   24   58 1     
   61   25   59 1     
   62   25   60 1     
   63   26   61 1     
   64   26   62 1     
@<TRIPOS>SUBSTRUCTURE
      1 ****           1
@<TRIPOS>SET
LONE_PAIRS      STATIC     ATOMS    <user>   **** ""
9 54 55 56 57 58 59 60 61 62
DONOR_HYDROGENS      STATIC     ATOMS    <user>   **** ""
4 50 51 52 53
ATOM$BLUE        STATIC     ATOMS    COLORGROUP SYSTEM
9 54 55 56 57 58 59 60 61 62
ATOM$RED        STATIC     ATOMS    COLORGROUP SYSTEM
4 50 51 52 53
