#       Name:                C:\Users\porto\OneDrive\projekt\beta1\ligandy\L_5a8e.pdb L_5a8e.pdb 1
#       Creating user name   student
#       Creation time:       Mon Apr 08 14:58:00 2019


#       File generated by GOLD software.
#

@<TRIPOS>MOLECULE
C:\Users\porto\OneDrive\projekt\beta1\ligandy\L_5a8e.pdb L_5a8e.pdb 1|5a8e|mol2|1|dock39
    51    52     1
SMALL
GASTEIGER


@<TRIPOS>ATOM
      1 C1         -24.7890  13.7245  22.5947 C.ar           1 <1>                0.1185
      2 N1         -25.6794  14.2564  21.7346 N.pl3          1 <1>               -0.3459
      3 O1         -22.5256  11.5416  19.4895 O.3            1 <1>               -0.4887
      4 C2         -23.8301  12.9214  22.0028 C.ar           1 <1>               -0.0151
      5 N2         -23.6162   7.9868  17.6313 N.3            1 <1>               -0.3088
      6 O2         -21.3600   8.9482  19.1717 O.3            1 <1>               -0.3872
      7 C3         -24.1810  12.9547  20.6190 C.ar           1 <1>                0.0428
      8 N3         -24.8027  14.2559  25.0404 N.1            1 <1>               -0.1893
      9 C4         -23.6280  12.3475  19.3753 C.ar           1 <1>                0.1298
     10 C5         -24.2488  12.6026  18.1392 C.ar           1 <1>               -0.0190
     11 C6         -25.3748  13.4188  18.0302 C.ar           1 <1>               -0.0534
     12 C7         -25.9490  14.0264  19.1411 C.ar           1 <1>               -0.0263
     13 C8         -25.3743  13.8156  20.4913 C.ar           1 <1>                0.0539
     14 C9         -21.7099  11.1607  18.3812 C.3            1 <1>                0.1166
     15 C10        -21.8975   9.6892  18.0732 C.3            1 <1>                0.1015
     16 C11        -23.3838   9.4014  17.8480 C.3            1 <1>                0.0256
     17 C12        -23.3122   7.3256  16.3671 C.3            1 <1>                0.0108
     18 C13        -24.0443   8.0573  15.2424 C.3            1 <1>               -0.0473
     19 C14        -23.8419   5.8899  16.4119 C.3            1 <1>               -0.0473
     20 C15        -21.7921   7.3548  16.1623 C.3            1 <1>               -0.0473
     21 C16        -24.8037  13.9813  23.9070 C.1            1 <1>                0.1171
     22 C17        -27.1474  14.9090  19.0010 C.3            1 <1>               -0.0377
     23 HN1        -26.4078  14.8671  22.0748 H              1 <1>                0.1665
     24 H2         -23.0660  12.4571  22.6080 H              1 <1>                0.0653
     25 HN2        -24.6022   7.8926  17.8326 H              1 <1>                0.1225
     26 HO2        -21.1650   9.5456  19.8966 H              1 <1>                0.2100
     27 H5         -23.8547  12.1603  17.2358 H              1 <1>                0.0654
     28 H6         -25.8239  13.5930  17.0631 H              1 <1>                0.0622
     29 H91        -20.6637  11.3513  18.6185 H              1 <1>                0.0723
     30 H92        -21.9849  11.7524  17.5083 H              1 <1>                0.0723
     31 H10        -21.3437   9.4396  17.1677 H              1 <1>                0.0640
     32 H111       -23.9530   9.7343  18.7156 H              1 <1>                0.0451
     33 H112       -23.7348   9.9639  16.9827 H              1 <1>                0.0451
     34 H131       -23.8261   7.5733  14.2904 H              1 <1>                0.0247
     35 H132       -25.1178   8.0263  15.4267 H              1 <1>                0.0247
     36 H133       -23.7123   9.0945  15.2062 H              1 <1>                0.0247
     37 H141       -23.6175   5.3891  15.4698 H              1 <1>                0.0247
     38 H142       -23.3647   5.3511  17.2309 H              1 <1>                0.0247
     39 H143       -24.9208   5.9050  16.5666 H              1 <1>                0.0247
     40 H151       -21.5425   6.8643  15.2209 H              1 <1>                0.0247
     41 H152       -21.4483   8.3888  16.1350 H              1 <1>                0.0247
     42 H153       -21.3035   6.8313  16.9845 H              1 <1>                0.0247
     43 H171       -27.4399  15.2835  19.9824 H              1 <1>                0.0278
     44 H172       -26.9066  15.7480  18.3488 H              1 <1>                0.0278
     45 H173       -27.9702  14.3391  18.5699 H              1 <1>                0.0278
     46 ****       -21.9147  12.0035  20.1325 LP             1 <1>                0.0000
     47 ****       -22.8521  10.6877  19.8948 LP             1 <1>                0.0000
     48 ****       -22.9464   7.5130  18.2030 LP             1 <1>                0.0000
     49 ****       -20.5200   8.4881  18.8839 LP             1 <1>                0.0000
     50 ****       -22.0272   8.2666  19.4720 LP             1 <1>                0.0000
     51 ****       -24.8018  14.4914  26.0123 LP             1 <1>                0.0000
@<TRIPOS>BOND
    1    1    2 ar    
    2    1    4 ar    
    3    1   21 1     
    4    2   13 ar    
    5    2   23 1     
    6    3   14 1     
    7    3    9 1     
    8    4    7 ar    
    9    4   24 1     
   10    5   17 1     
   11    5   16 1     
   12    5   25 1     
   13    6   15 1     
   14    6   26 1     
   15    7    9 ar    
   16    7   13 ar    
   17    8   21 3     
   18    9   10 ar    
   19   10   11 ar    
   20   10   27 1     
   21   11   12 ar    
   22   11   28 1     
   23   12   22 1     
   24   12   13 ar    
   25   14   15 1     
   26   14   29 1     
   27   14   30 1     
   28   15   16 1     
   29   15   31 1     
   30   16   32 1     
   31   16   33 1     
   32   17   18 1     
   33   17   19 1     
   34   17   20 1     
   35   18   34 1     
   36   18   35 1     
   37   18   36 1     
   38   19   37 1     
   39   19   38 1     
   40   19   39 1     
   41   20   40 1     
   42   20   41 1     
   43   20   42 1     
   44   22   43 1     
   45   22   44 1     
   46   22   45 1     
   47    3   46 1     
   48    3   47 1     
   49    5   48 1     
   50    6   49 1     
   51    6   50 1     
   52    8   51 1     
@<TRIPOS>SUBSTRUCTURE
      1 ****           1
@<TRIPOS>SET
LONE_PAIRS      STATIC     ATOMS    <user>   **** ""
6 46 47 48 49 50 51
DONOR_HYDROGENS      STATIC     ATOMS    <user>   **** ""
3 23 25 26
ATOM$BLUE        STATIC     ATOMS    COLORGROUP SYSTEM
6 46 47 48 49 50 51
ATOM$RED        STATIC     ATOMS    COLORGROUP SYSTEM
3 23 25 26
@<TRIPOS>COMMENT
> <Gold.Version>
5.5

> <Gold.Id.Protein>
unknown|bialko_beta1|pdb

> <Gold.Protein.ActiveResidues>
 ALA86   ASP87   VAL90   VAL94   VAL95   GLY98   ALA99   LEU101  VAL102  CYS114 
 GLU115  TRP117  THR118  SER119  LEU120  ASP121  VAL122  CYS124  VAL125  THR126 
 SER128  SER173  PHE174  ILE177  CYS199  ASP200  PHE201  TYR207  SER215  PHE299 
 TRP303  PHE306  PHE307  ASN310  PHE325  VAL326  ASN329  TRP330  GLY332  TYR333 
 SER336 

> <Gold.Score>
     Score     S(PLP)   S(hbond)     S(cho)   S(metal)  DE(clash)   DE(tors)     intcor
     61.82     -61.22       0.74       0.00       0.00       0.00       0.85       0.08

> <Gold.PLP.Fitness>
61.8155

> <Gold.PLP.PLP>
-61.2243

> <Gold.PLP.part.hbond>
-2.8197

> <Gold.PLP.part.metal>
0.0000

> <Gold.PLP.part.buried>
-5.3731

> <Gold.PLP.part.nonpolar>
-54.1736

> <Gold.PLP.part.repulsive>
0.2291

> <Gold.PLP.ligand.clash>
0.0000

> <Gold.PLP.ligand.torsion>
0.8495

> <Gold.PLP.Chemscore.Hbond>
0.7360

> <Gold.PLP.Chemscore.CHOScore>
0.0000

> <Gold.PLP.Chemscore.Metal>
0.0000

> <Gold.Chemscore.Hbonds>
donor molecule, donor type, donor heavy atom, donor atom, acceptor molecule, acceptor atom, score
      L1  H     5    25       P1  2066  0.74

> <Gold.PLP.Chemscore.Internal.Correction>
0.0822

