#       Name:                C:\Users\porto\OneDrive\projekt\beta2\ligandy\L_6mxt.pdb L_6mxt.pdb 1
#       Creating user name   student
#       Creation time:       Wed Apr 10 12:25:45 2019


#       File generated by GOLD software.
#

@<TRIPOS>MOLECULE
C:\Users\porto\OneDrive\projekt\beta2\ligandy\L_6mxt.pdb L_6mxt.pdb 1|6mxt|mol2|1|dock40
    76    77     1
SMALL
GASTEIGER


@<TRIPOS>ATOM
      1 CAD        -39.3602   0.7679  10.7048 C.ar           1 <1>               -0.0617
      2 CAE        -37.9922   0.5424  10.8056 C.ar           1 <1>               -0.0615
      3 CAF        -39.8319   2.0487  10.4487 C.ar           1 <1>               -0.0615
      4 CAG        -37.0984   1.5981  10.6470 C.ar           1 <1>               -0.0586
      5 CAH        -38.9394   3.1041  10.2913 C.ar           1 <1>               -0.0586
      6 CAI        -24.2516   8.4471   7.0031 C.ar           1 <1>               -0.0195
      7 CAJ        -24.8718   9.3634   6.1630 C.ar           1 <1>               -0.0526
      8 CAK        -26.9844   8.2537   6.5292 C.ar           1 <1>               -0.0472
      9 CAL        -31.3018   9.4463   6.2634 C.3            1 <1>               -0.0518
     10 CAM        -32.0490   8.1540   6.6063 C.3            1 <1>               -0.0509
     11 CAN        -30.8553  10.1456   7.5487 C.3            1 <1>               -0.0404
     12 CAO        -32.5974   7.5220   5.3244 C.3            1 <1>               -0.0295
     13 CAP        -35.1588   5.0941   8.6097 C.3            1 <1>               -0.0292
     14 CAQ        -36.2641   4.0439   8.7613 C.3            1 <1>               -0.0470
     15 CAR        -27.0954   6.3215   7.9750 C.3            1 <1>                0.0727
     16 CAS        -29.7191  11.1316   7.2532 C.3            1 <1>               -0.0040
     17 CAT        -33.2340   6.1784   5.6719 C.3            1 <1>                0.0477
     18 CAU        -34.7249   5.1812   7.1473 C.3            1 <1>                0.0477
     19 CAV        -36.6845   3.9402  10.2341 C.3            1 <1>               -0.0276
     20 CAW        -27.6802  11.1576   5.9322 C.3            1 <1>                0.0261
     21 CAZ        -37.5708   2.8804  10.3913 C.ar           1 <1>               -0.0474
     22 NAX        -28.4686  10.4194   6.9288 N.3            1 <1>               -0.3132
     23 OAA        -28.4379   6.7705   8.1724 O.3            1 <1>               -0.3903
     24 OAB        -24.4336   6.5266   8.4276 O.3            1 <1>               -0.5064
     25 OAC        -27.7335   9.5048   4.1933 O.3            1 <1>               -0.3859
     26 OAY        -33.7959   6.2530   6.9845 O.3            1 <1>               -0.3798
     27 CBA        -25.0003   7.4437   7.5984 C.ar           1 <1>                0.1222
     28 CBB        -26.2379   9.2668   5.9288 C.ar           1 <1>               -0.0174
     29 CBC        -26.3657   7.3358   7.3691 C.ar           1 <1>                0.0195
     30 CBD        -26.8510  10.1830   5.0865 C.3            1 <1>                0.0926
     31 HAD        -40.0559  -0.0495  10.8250 H              1 <1>                0.0618
     32 HAE        -37.6218  -0.4519  11.0070 H              1 <1>                0.0618
     33 HAF        -40.8938   2.2271  10.3713 H              1 <1>                0.0618
     34 HAG        -36.0357   1.4219  10.7223 H              1 <1>                0.0620
     35 HAH        -39.3098   4.0989  10.0908 H              1 <1>                0.0620
     36 HAI        -23.1902   8.5141   7.1934 H              1 <1>                0.0654
     37 HAJ        -24.2922  10.1456   5.6952 H              1 <1>                0.0622
     38 HAK        -28.0453   8.1832   6.3399 H              1 <1>                0.0626
     39 HAL1       -30.4283   9.2098   5.6563 H              1 <1>                0.0266
     40 HAL2       -31.9598  10.1078   5.7001 H              1 <1>                0.0266
     41 HAM1       -32.8744   8.3803   7.2819 H              1 <1>                0.0266
     42 HAM2       -31.3654   7.4575   7.0909 H              1 <1>                0.0266
     43 HAN1       -30.5124   9.4007   8.2666 H              1 <1>                0.0277
     44 HAN2       -31.6995  10.6830   7.9813 H              1 <1>                0.0277
     45 HAO1       -31.7815   7.3656   4.6193 H              1 <1>                0.0287
     46 HAO2       -33.3501   8.1789   4.8894 H              1 <1>                0.0287
     47 HAP1       -35.5329   6.0650   8.9359 H              1 <1>                0.0287
     48 HAP2       -34.3045   4.8134   9.2259 H              1 <1>                0.0287
     49 HAQ1       -35.8955   3.0768   8.4200 H              1 <1>                0.0269
     50 HAQ2       -37.1243   4.3329   8.1577 H              1 <1>                0.0269
     51 HAR1       -27.0982   5.4419   7.3313 H              1 <1>                0.0608
     52 HAR2       -26.6482   6.0784   8.9391 H              1 <1>                0.0608
     53 HAS1       -29.5579  11.7701   8.1223 H              1 <1>                0.0424
     54 HAS2       -30.0007  11.7699   6.4158 H              1 <1>                0.0424
     55 HAT1       -32.4728   5.3990   5.6467 H              1 <1>                0.0560
     56 HAT2       -34.0213   5.9523   4.9528 H              1 <1>                0.0560
     57 HAU1       -35.5983   5.3591   6.5200 H              1 <1>                0.0560
     58 HAU2       -34.2529   4.2444   6.8522 H              1 <1>                0.0560
     59 HAV1       -37.1696   4.8670  10.5392 H              1 <1>                0.0313
     60 HAV2       -35.8030   3.7712  10.8524 H              1 <1>                0.0313
     61 HAW1       -28.3509  11.7211   5.2835 H              1 <1>                0.0453
     62 HAW2       -27.0137  11.8549   6.4405 H              1 <1>                0.0453
     63 HNAX       -27.9129  10.3149   7.7661 H              1 <1>                0.1220
     64 HOAA       -28.9405   6.0897   8.6259 H              1 <1>                0.2098
     65 HOAB       -23.6191   6.8817   8.7895 H              1 <1>                0.2921
     66 HOAC       -27.2352   8.8767   3.6660 H              1 <1>                0.2103
     67 HBD        -26.0973  10.7304   4.5208 H              1 <1>                0.0656
     68 ****       -28.7109   9.5249   6.5530 LP             1 <1>                0.0000
     69 ****       -28.8594   6.9608   7.2857 LP             1 <1>                0.0000
     70 ****       -28.4326   7.6042   8.7247 LP             1 <1>                0.0000
     71 ****       -24.2341   5.6918   7.9145 LP             1 <1>                0.0000
     72 ****       -25.0657   6.3163   9.1734 LP             1 <1>                0.0000
     73 ****       -28.1740  10.1703   3.5907 LP             1 <1>                0.0000
     74 ****       -28.4313   9.0186   4.7194 LP             1 <1>                0.0000
     75 ****       -34.2676   7.1273   7.0992 LP             1 <1>                0.0000
     76 ****       -33.0689   6.1745   7.6665 LP             1 <1>                0.0000
@<TRIPOS>BOND
    1    1    3 ar    
    2    1    2 ar    
    3    1   31 1     
    4    2    4 ar    
    5    2   32 1     
    6    3    5 ar    
    7    3   33 1     
    8    4   21 ar    
    9    4   34 1     
   10    5   21 ar    
   11    5   35 1     
   12    6   27 ar    
   13    6    7 ar    
   14    6   36 1     
   15    7   28 ar    
   16    7   37 1     
   17    8   29 ar    
   18    8   28 ar    
   19    8   38 1     
   20    9   11 1     
   21    9   10 1     
   22    9   39 1     
   23    9   40 1     
   24   10   12 1     
   25   10   41 1     
   26   10   42 1     
   27   11   16 1     
   28   11   43 1     
   29   11   44 1     
   30   12   17 1     
   31   12   45 1     
   32   12   46 1     
   33   13   18 1     
   34   13   14 1     
   35   13   47 1     
   36   13   48 1     
   37   14   19 1     
   38   14   49 1     
   39   14   50 1     
   40   15   23 1     
   41   15   29 1     
   42   15   51 1     
   43   15   52 1     
   44   16   22 1     
   45   16   53 1     
   46   16   54 1     
   47   17   26 1     
   48   17   55 1     
   49   17   56 1     
   50   18   26 1     
   51   18   57 1     
   52   18   58 1     
   53   19   21 1     
   54   19   59 1     
   55   19   60 1     
   56   20   30 1     
   57   20   22 1     
   58   20   61 1     
   59   20   62 1     
   60   22   63 1     
   61   23   64 1     
   62   24   27 1     
   63   24   65 1     
   64   25   30 1     
   65   25   66 1     
   66   27   29 ar    
   67   28   30 1     
   68   30   67 1     
   69   22   68 1     
   70   23   69 1     
   71   23   70 1     
   72   24   71 1     
   73   24   72 1     
   74   25   73 1     
   75   25   74 1     
   76   26   75 1     
   77   26   76 1     
@<TRIPOS>SUBSTRUCTURE
      1 ****           1
@<TRIPOS>SET
LONE_PAIRS      STATIC     ATOMS    <user>   **** ""
9 68 69 70 71 72 73 74 75 76
DONOR_HYDROGENS      STATIC     ATOMS    <user>   **** ""
4 63 64 65 66
ATOM$BLUE        STATIC     ATOMS    COLORGROUP SYSTEM
9 68 69 70 71 72 73 74 75 76
ATOM$RED        STATIC     ATOMS    COLORGROUP SYSTEM
4 63 64 65 66
@<TRIPOS>COMMENT
> <Gold.Version>
5.6

> <Gold.Id.Protein>
unknown|dok_beta2|pdb

> <Gold.Protein.RotatedTorsions>
[ 4175 4166 4165 4163 ] final -111.57 input -179.98 | X-H torsion
[ 1294 1290 1288 1285 ] final  -69.02 input -179.99 | X-H torsion
[ 4033 4024 4023 4021 ] final   89.06 input  179.98 | X-H torsion
[ 1412 1408 1406 1403 ] final  -28.51 input -179.99 | X-H torsion
[ 2830 2825 2824 2821 ] final  166.73 input -179.98 | X-H torsion
[ 2723 2714 2713 2711 ] final  -35.11 input -179.98 | X-H torsion
[ 2773 2768 2767 2764 ] final  171.93 input  180.00 | X-H torsion

> <Gold.Protein.ActiveResidues>
 TRP109  THR110  ASP113  VAL114  VAL117  THR118  PHE193  TYR199  SER203  SER207 
 PHE208  TRP286  PHE289  PHE290  ASN293  TYR308  ASN312  TYR316 

> <Gold.Protein.RotatedAtoms>
  -34.5451    4.5414    2.6476 H   0  0  0  0  0  0  0  0  0  0  0  0  # atno 1294 bound_to 1290
  -27.3076   15.1971    3.3702 H   0  0  0  0  0  0  0  0  0  0  0  0  # atno 1412 bound_to 1408
  -25.9622    8.3095    1.6342 H   0  0  0  0  0  0  0  0  0  0  0  0  # atno 2723 bound_to 2714
  -24.6393    9.4117    2.8357 H   0  0  0  0  0  0  0  0  0  0  0  0  # atno 2773 bound_to 2768
  -24.7659   12.8439    2.9234 H   0  0  0  0  0  0  0  0  0  0  0  0  # atno 2830 bound_to 2825
  -29.1619    6.8914   11.0455 H   0  0  0  0  0  0  0  0  0  0  0  0  # atno 4033 bound_to 4024
  -36.1424    8.7919    8.2749 H   0  0  0  0  0  0  0  0  0  0  0  0  # atno 4175 bound_to 4166
  -36.9806    9.2915    7.0065 LP  0  0  0  0  0  0  0  0  0  0  0  0  # atno 4597 bound_to 4166
  -37.6610    8.3110    8.1211 LP  0  0  0  0  0  0  0  0  0  0  0  0  # atno 4598 bound_to 4166
  -34.0257    3.5384    1.5137 LP  0  0  0  0  0  0  0  0  0  0  0  0  # atno 4603 bound_to 1290
  -35.4132    4.3760    1.3132 LP  0  0  0  0  0  0  0  0  0  0  0  0  # atno 4604 bound_to 1290
  -28.7779    5.3861   10.6595 LP  0  0  0  0  0  0  0  0  0  0  0  0  # atno 4607 bound_to 4024
  -27.7545    6.3081   11.5365 LP  0  0  0  0  0  0  0  0  0  0  0  0  # atno 4608 bound_to 4024
  -26.7369   14.7685    1.9378 LP  0  0  0  0  0  0  0  0  0  0  0  0  # atno 4611 bound_to 1408
  -28.3216   14.5917    2.2901 LP  0  0  0  0  0  0  0  0  0  0  0  0  # atno 4612 bound_to 1408
  -23.2666   13.3759    2.7522 LP  0  0  0  0  0  0  0  0  0  0  0  0  # atno 4613 bound_to 2825
  -24.5038   14.1071    1.9769 LP  0  0  0  0  0  0  0  0  0  0  0  0  # atno 4614 bound_to 2825

> <Gold.Score>
     Fitness  S(hb_ext) S(vdw_ext)  S(hb_int)    S(int)      intcor
     73.43       0.00      57.89       0.00      -6.17     -23.71

> <Gold.Goldscore.Fitness>
73.4261

> <Gold.Goldscore.Internal.Vdw>
-23.4182

> <Gold.Goldscore.Internal.Torsion>
-6.4632

> <Gold.Goldscore.External.Vdw>
57.8883

> <Gold.Goldscore.Internal.HBond>
0.0000

> <Gold.Goldscore.External.HBond>
0.0000

> <Gold.Goldscore.Internal.Correction>
-23.7111

> <Gold.Goldscore.Internal.Vdw.Weighted>
-23.4182

> <Gold.Goldscore.Internal.Torsion.Weighted>
-6.4632

> <Gold.Goldscore.External.Vdw.Weighted>
79.5963

> <Gold.Goldscore.Internal.HBond.Weighted>
0.0000

> <Gold.Goldscore.External.HBond.Weighted>
0.0000

> <Gold.Goldscore.Internal.Correction.Weighted>
-23.7111

