#       Name:                C:\Users\porto\OneDrive\projekt\beta1\ligandy\L_4bvn.pdb L_4bvn.pdb 1
#       Creating user name   student
#       Creation time:       Mon Apr 08 14:19:58 2019


#       File generated by GOLD software.
#

@<TRIPOS>MOLECULE
C:\Users\porto\OneDrive\projekt\beta1\ligandy\L_4bvn.pdb L_4bvn.pdb 1|4bvn|mol2|1|dock2
    48    49     1
SMALL
GASTEIGER


@<TRIPOS>ATOM
      1 C1         -23.2962   4.6943  12.5418 C.2            1 <1>                0.1822
      2 N1         -23.7661   3.7554  13.3325 N.1            1 <1>               -0.3633
      3 O1         -22.6955   7.5416  15.5337 O.3            1 <1>               -0.4884
      4 C2         -22.9969   5.7916  13.2738 C.3            1 <1>                0.0496
      5 N2         -24.2725  10.0809  19.0748 N.3            1 <1>               -0.3088
      6 O2         -24.6973   8.5872  16.9459 O.3            1 <1>               -0.3872
      7 C3         -23.3110   5.5232  14.5416 C.ar           1 <1>                0.0656
      8 N3         -22.8103   4.4326   9.8200 N.1            1 <1>               -0.1885
      9 C4         -23.2267   6.2663  15.6635 C.ar           1 <1>                0.1336
     10 C5         -23.6793   5.7443  16.8430 C.ar           1 <1>               -0.0184
     11 C6         -24.2036   4.4507  16.9102 C.ar           1 <1>               -0.0489
     12 C7         -24.2945   3.7282  15.7100 C.ar           1 <1>                0.0031
     13 C8         -23.8449   4.2637  14.5622 C.ar           1 <1>               -0.0070
     14 C9         -22.3186   8.1823  16.6762 C.3            1 <1>                0.1166
     15 C10        -23.3860   9.2315  16.9822 C.3            1 <1>                0.1015
     16 C11        -23.0445   9.7590  18.3418 C.3            1 <1>                0.0256
     17 C12        -24.0016  10.6053  20.4821 C.3            1 <1>                0.0108
     18 C13        -23.0490  11.8455  20.4804 C.3            1 <1>               -0.0473
     19 C14        -23.3125   9.4986  21.3383 C.3            1 <1>               -0.0473
     20 C15        -25.2652  11.0196  21.2560 C.3            1 <1>               -0.0473
     21 C16        -23.0575   4.5622  11.0824 C.1            1 <1>                0.1289
     22 H21        -23.5920   6.6345  12.9237 H              1 <1>                0.0403
     23 H22        -21.9293   5.9969  13.2003 H              1 <1>                0.0403
     24 HN2        -24.8284   9.2392  19.1292 H              1 <1>                0.1225
     25 HO2        -24.8206   8.0662  17.7428 H              1 <1>                0.2100
     26 H5         -23.6356   6.3345  17.7466 H              1 <1>                0.0654
     27 H6         -24.5197   4.0442  17.8602 H              1 <1>                0.0625
     28 H7         -24.7269   2.7388  15.7069 H              1 <1>                0.0725
     29 H91        -21.3601   8.6759  16.5158 H              1 <1>                0.0723
     30 H92        -22.2705   7.4648  17.4957 H              1 <1>                0.0723
     31 H10        -23.3430  10.0352  16.2468 H              1 <1>                0.0640
     32 H111       -22.4806   9.0066  18.8920 H              1 <1>                0.0451
     33 H112       -22.4362  10.6576  18.2403 H              1 <1>                0.0451
     34 H131       -22.8872  12.1817  21.5048 H              1 <1>                0.0247
     35 H132       -22.0937  11.5700  20.0336 H              1 <1>                0.0247
     36 H133       -23.5012  12.6507  19.9020 H              1 <1>                0.0247
     37 H141       -23.1224   9.8806  22.3418 H              1 <1>                0.0247
     38 H142       -23.9643   8.6275  21.3994 H              1 <1>                0.0247
     39 H143       -22.3684   9.2137  20.8729 H              1 <1>                0.0247
     40 H151       -24.9842  11.3806  22.2457 H              1 <1>                0.0247
     41 H152       -25.7804  11.8122  20.7133 H              1 <1>                0.0247
     42 H153       -25.9279  10.1601  21.3579 H              1 <1>                0.0247
     43 ****       -23.3851   8.1096  15.0846 LP             1 <1>                0.0000
     44 ****       -21.8879   7.4722  14.9481 LP             1 <1>                0.0000
     45 ****       -24.7506  10.8101  18.5852 LP             1 <1>                0.0000
     46 ****       -24.7531   7.9903  16.1456 LP             1 <1>                0.0000
     47 ****       -25.4105   9.2860  16.8910 LP             1 <1>                0.0000
     48 ****       -22.6191   4.3323   8.8435 LP             1 <1>                0.0000
@<TRIPOS>BOND
    1    1    4 1     
    2    1   21 1     
    3    1    2 2     
    4    2   13 2     
    5    3    9 1     
    6    3   14 1     
    7    4    7 1     
    8    4   22 1     
    9    4   23 1     
   10    5   17 1     
   11    5   16 1     
   12    5   24 1     
   13    6   15 1     
   14    6   25 1     
   15    7    9 ar    
   16    7   13 ar    
   17    8   21 3     
   18    9   10 ar    
   19   10   11 ar    
   20   10   26 1     
   21   11   12 ar    
   22   11   27 1     
   23   12   13 ar    
   24   12   28 1     
   25   14   15 1     
   26   14   29 1     
   27   14   30 1     
   28   15   16 1     
   29   15   31 1     
   30   16   32 1     
   31   16   33 1     
   32   17   18 1     
   33   17   19 1     
   34   17   20 1     
   35   18   34 1     
   36   18   35 1     
   37   18   36 1     
   38   19   37 1     
   39   19   38 1     
   40   19   39 1     
   41   20   40 1     
   42   20   41 1     
   43   20   42 1     
   44    3   43 1     
   45    3   44 1     
   46    5   45 1     
   47    6   46 1     
   48    6   47 1     
   49    8   48 1     
@<TRIPOS>SUBSTRUCTURE
      1 ****           1
@<TRIPOS>SET
LONE_PAIRS      STATIC     ATOMS    <user>   **** ""
6 43 44 45 46 47 48
DONOR_HYDROGENS      STATIC     ATOMS    <user>   **** ""
2 24 25
ATOM$BLUE        STATIC     ATOMS    COLORGROUP SYSTEM
6 43 44 45 46 47 48
ATOM$RED        STATIC     ATOMS    COLORGROUP SYSTEM
2 24 25
@<TRIPOS>COMMENT
> <Gold.Version>
5.5

> <Gold.Id.Protein>
unknown|bialko_beta1|pdb

> <Gold.Protein.ActiveResidues>
 ALA86   ASP87   VAL90   VAL94   VAL95   GLY98   ALA99   LEU101  VAL102  CYS114 
 GLU115  TRP117  THR118  SER119  LEU120  ASP121  VAL122  CYS124  VAL125  THR126 
 SER128  SER173  PHE174  ILE177  CYS199  ASP200  PHE201  TYR207  SER215  PHE299 
 TRP303  PHE306  PHE307  ASN310  PHE325  VAL326  ASN329  TRP330  GLY332  TYR333 
 SER336 

> <Gold.Score>
     Score     S(PLP)   S(hbond)     S(cho)   S(metal)  DE(clash)   DE(tors)     intcor
     60.53     -56.42       2.00       0.00       0.00       0.00       1.00       0.11

> <Gold.PLP.Fitness>
60.5287

> <Gold.PLP.PLP>
-56.4239

> <Gold.PLP.part.hbond>
-2.0000

> <Gold.PLP.part.metal>
0.0000

> <Gold.PLP.part.buried>
-4.6648

> <Gold.PLP.part.nonpolar>
-49.6495

> <Gold.PLP.part.repulsive>
0.3808

> <Gold.PLP.ligand.clash>
0.0000

> <Gold.PLP.ligand.torsion>
1.0010

> <Gold.PLP.Chemscore.Hbond>
2.0000

> <Gold.PLP.Chemscore.CHOScore>
0.0000

> <Gold.PLP.Chemscore.Metal>
0.0000

> <Gold.Chemscore.Hbonds>
donor molecule, donor type, donor heavy atom, donor atom, acceptor molecule, acceptor atom, score
      L1  H     5    24       P1  2066  1.00
      L1  H     6    25       P1  2066  1.00

> <Gold.PLP.Chemscore.Internal.Correction>
0.1069

