#       Name:                C:\Users\porto\OneDrive\projekt\beta1\ligandy\L_6ibl.pdb L_6ibl.pdb 1
#       Creating user name   student
#       Creation time:       Mon Apr 08 15:39:21 2019


#       File generated by GOLD software.
#

@<TRIPOS>MOLECULE
C:\Users\porto\OneDrive\projekt\beta1\ligandy\L_6ibl.pdb L_6ibl.pdb 1|6ibl|mol2|1|dock2
    58    59     1
SMALL
GASTEIGER


@<TRIPOS>ATOM
      1 C1         -21.8162   7.3920  16.3468 C.3            1 <1>               -0.0494
      2 N1         -23.5735   8.4774  17.7599 N.3            1 <1>               -0.3104
      3 O1         -22.8332   2.4278  12.7350 O.3            1 <1>               -0.4951
      4 C2         -23.1775   7.2369  17.0515 C.3            1 <1>                0.0089
      5 N2         -25.1997  13.9304  21.3587 N.am           1 <1>               -0.2852
      6 O2         -25.9003  14.5704  18.8660 O.3            1 <1>               -0.5049
      7 C3         -24.2930   6.7985  16.0776 C.3            1 <1>               -0.0125
      8 O3         -24.3778  12.8957  23.1962 O.2            1 <1>               -0.2792
      9 C4         -23.9086   5.6301  15.1941 C.ar           1 <1>               -0.0457
     10 O4         -23.4002   8.9054  20.4951 O.3            1 <1>               -0.3859
     11 C5         -23.5557   4.4021  15.7475 C.ar           1 <1>               -0.0551
     12 C6         -23.2026   3.3210  14.9544 C.ar           1 <1>               -0.0197
     13 C7         -23.1945   3.4603  13.5672 C.ar           1 <1>                0.1201
     14 C8         -23.5569   4.6795  12.9952 C.ar           1 <1>               -0.0197
     15 C9         -23.9036   5.7508  13.8089 C.ar           1 <1>               -0.0551
     16 C10        -22.9743   2.5687  11.3178 C.3            1 <1>                0.0788
     17 C11        -22.4573   9.2457  18.3217 C.3            1 <1>                0.0264
     18 C12        -22.7824   9.8851  19.6702 C.3            1 <1>                0.0927
     19 C13        -23.6077  11.1461  19.4336 C.ar           1 <1>               -0.0160
     20 C14        -24.0086  11.9328  20.5127 C.ar           1 <1>               -0.0312
     21 C15        -24.7698  13.0828  20.3133 C.ar           1 <1>                0.0755
     22 C16        -25.1564  13.4508  19.0199 C.ar           1 <1>                0.1380
     23 C17        -24.7480  12.6684  17.9415 C.ar           1 <1>               -0.0180
     24 C18        -23.9856  11.5373  18.1543 C.ar           1 <1>               -0.0525
     25 C19        -24.9975  13.8068  22.6693 C.2            1 <1>                0.2042
     26 H11        -21.5611   6.4622  15.8394 H              1 <1>                0.0245
     27 H12        -21.8740   8.2001  15.6169 H              1 <1>                0.0245
     28 H13        -21.0484   7.6248  17.0850 H              1 <1>                0.0245
     29 HN1        -24.2008   8.2019  18.5020 H              1 <1>                0.1223
     30 H2         -23.0704   6.4524  17.8010 H              1 <1>                0.0461
     31 HN2        -25.7248  14.7152  21.0002 H              1 <1>                0.1546
     32 HO2        -25.7061  14.9694  18.0144 H              1 <1>                0.2922
     33 H31        -24.5812   7.6443  15.4529 H              1 <1>                0.0328
     34 H32        -25.1883   6.5435  16.6448 H              1 <1>                0.0328
     35 HO4        -24.1792   8.5593  20.0529 H              1 <1>                0.2103
     36 H5         -23.5524   4.2738  16.8195 H              1 <1>                0.0621
     37 H6         -22.9363   2.3798  15.4119 H              1 <1>                0.0654
     38 H8         -23.5676   4.7899  11.9207 H              1 <1>                0.0654
     39 H9         -24.1729   6.6899  13.3479 H              1 <1>                0.0621
     40 H101       -22.6403   1.6552  10.8261 H              1 <1>                0.0660
     41 H102       -24.0208   2.7510  11.0728 H              1 <1>                0.0660
     42 H103       -22.3701   3.4082  10.9735 H              1 <1>                0.0660
     43 H111       -22.1602  10.0211  17.6157 H              1 <1>                0.0453
     44 H112       -21.5886   8.5958  18.4292 H              1 <1>                0.0453
     45 H12        -21.8434  10.1787  20.1401 H              1 <1>                0.0656
     46 H14        -23.7294  11.6538  21.5182 H              1 <1>                0.0641
     47 H17        -25.0274  12.9461  16.9363 H              1 <1>                0.0655
     48 H18        -23.6824  10.9521  17.2987 H              1 <1>                0.0622
     49 H19        -25.3949  14.5464  23.3487 H              1 <1>                0.1255
     50 ****       -23.9981   9.0889  17.0922 LP             1 <1>                0.0000
     51 ****       -21.8672   2.2389  12.9117 LP             1 <1>                0.0000
     52 ****       -23.3820   1.6358  13.0025 LP             1 <1>                0.0000
     53 ****       -25.6818  15.2187  19.5954 LP             1 <1>                0.0000
     54 ****       -26.8710  14.3342  18.9098 LP             1 <1>                0.0000
     55 ****       -23.9789  12.1715  22.6337 LP             1 <1>                0.0000
     56 ****       -24.2694  12.8738  24.1900 LP             1 <1>                0.0000
     57 ****       -23.6677   9.3219  21.3640 LP             1 <1>                0.0000
     58 ****       -22.7559   8.1602  20.6671 LP             1 <1>                0.0000
@<TRIPOS>BOND
    1    1    4 1     
    2    1   26 1     
    3    1   27 1     
    4    1   28 1     
    5    2   17 1     
    6    2    4 1     
    7    2   29 1     
    8    3   16 1     
    9    3   13 1     
   10    4    7 1     
   11    4   30 1     
   12    5   25 am    
   13    5   21 1     
   14    5   31 1     
   15    6   22 1     
   16    6   32 1     
   17    7    9 1     
   18    7   33 1     
   19    7   34 1     
   20    8   25 2     
   21    9   11 ar    
   22    9   15 ar    
   23   10   18 1     
   24   10   35 1     
   25   11   12 ar    
   26   11   36 1     
   27   12   13 ar    
   28   12   37 1     
   29   13   14 ar    
   30   14   15 ar    
   31   14   38 1     
   32   15   39 1     
   33   16   40 1     
   34   16   41 1     
   35   16   42 1     
   36   17   18 1     
   37   17   43 1     
   38   17   44 1     
   39   18   19 1     
   40   18   45 1     
   41   19   20 ar    
   42   19   24 ar    
   43   20   21 ar    
   44   20   46 1     
   45   21   22 ar    
   46   22   23 ar    
   47   23   24 ar    
   48   23   47 1     
   49   24   48 1     
   50   25   49 1     
   51    2   50 1     
   52    3   51 1     
   53    3   52 1     
   54    6   53 1     
   55    6   54 1     
   56    8   55 1     
   57    8   56 1     
   58   10   57 1     
   59   10   58 1     
@<TRIPOS>SUBSTRUCTURE
      1 ****           1
@<TRIPOS>SET
LONE_PAIRS      STATIC     ATOMS    <user>   **** ""
9 50 51 52 53 54 55 56 57 58
DONOR_HYDROGENS      STATIC     ATOMS    <user>   **** ""
4 29 31 32 35
ATOM$BLUE        STATIC     ATOMS    COLORGROUP SYSTEM
9 50 51 52 53 54 55 56 57 58
ATOM$RED        STATIC     ATOMS    COLORGROUP SYSTEM
4 29 31 32 35
@<TRIPOS>COMMENT
> <Gold.Version>
5.5

> <Gold.Id.Protein>
unknown|bialko_beta1|pdb

> <Gold.Protein.ActiveResidues>
 ALA86   ASP87   VAL90   VAL94   VAL95   GLY98   ALA99   LEU101  VAL102  CYS114 
 GLU115  TRP117  THR118  SER119  LEU120  ASP121  VAL122  CYS124  VAL125  THR126 
 SER128  SER173  PHE174  ILE177  CYS199  ASP200  PHE201  TYR207  SER215  PHE299 
 TRP303  PHE306  PHE307  ASN310  PHE325  VAL326  ASN329  TRP330  GLY332  TYR333 
 SER336 

> <Gold.Score>
     Score         DG    S(hbond)    S(metal)    S(lipo)     H(rot)  DE(clash)    DE(int)     intcor
     30.36     -31.50       2.00        0.00     243.77       3.58       0.67       0.47       1.56

> <Gold.Chemscore.Fitness>
30.3606

> <Gold.Chemscore.DG>
-31.5000

> <Gold.Chemscore.ZeroCoef>
-5.4800

> <Gold.Chemscore.Hbond>
1.9956

> <Gold.Chemscore.Metal>
0.0000

> <Gold.Chemscore.Lipo>
243.7736

> <Gold.Chemscore.Internal_Hbond>
0.0000

> <Gold.Chemscore.DEClash>
0.6736

> <Gold.Chemscore.DEInternal>
0.4657

> <Gold.Chemscore.Rot>
3.5809

> <Gold.Chemscore.Internal.Correction>
1.5612

> <Gold.Chemscore.Hbonds>
donor molecule, donor type, donor heavy atom, donor atom, acceptor molecule, acceptor atom, score
      L1  H     2    29       P1  2066  1.00
      L1  H    10    35       P1  2066  1.00

> <Gold.Chemscore.Hbond.Weighted>
-6.6655

> <Gold.Chemscore.Metal.Weighted>
-0.0000

> <Gold.Chemscore.Lipo.Weighted>
-28.5215

> <Gold.Chemscore.Internal_Hbond.Weighted>
0.0000

> <Gold.Chemscore.DEClash.Weighted>
0.6736

> <Gold.Chemscore.DEInternal.Weighted>
0.4657

> <Gold.Chemscore.Rot.Weighted>
9.1670

> <Gold.Chemscore.Internal.Correction.Weighted>
1.5612

