#       Name:                C:\Users\porto\OneDrive\projekt\beta2\ligandy\L_3d4s.pdb L_3d4s.pdb 1
#       Creating user name   student
#       Creation time:       Mon Apr 01 15:45:03 2019


#       File generated by GOLD software.
#

@<TRIPOS>MOLECULE
C:\Users\porto\OneDrive\projekt\beta2\ligandy\L_3d4s.pdb L_3d4s.pdb 1|3d4s|mol2|1|dock7
    54    55     1
SMALL
GASTEIGER


@<TRIPOS>ATOM
      1 O1         -25.9726   6.9460   6.9293 O.3            1 <1>               -0.3767
      2 C2         -27.1992   7.3186   7.5412 C.3            1 <1>                0.0634
      3 C3         -27.8905   8.5383   6.9058 C.3            1 <1>                0.0372
      4 N4         -26.9934   9.5410   6.3882 N.pl3          1 <1>               -0.3060
      5 C5         -25.6648   9.1388   5.9723 C.3            1 <1>                0.0372
      6 C6         -25.0777   8.0402   6.8610 C.3            1 <1>                0.0634
      7 C7         -27.4195  10.8032   6.0527 C.ar           1 <1>                0.1942
      8 N8         -26.6103  11.6514   5.3962 N.ar           1 <1>               -0.1717
      9 S9         -27.4004  13.0632   5.1243 S.2            1 <1>                0.1206
     10 N10        -28.8350  12.7030   5.8250 N.ar           1 <1>               -0.1530
     11 C11        -28.7691  11.4663   6.2948 C.ar           1 <1>                0.2652
     12 O12        -29.8027  10.8606   6.9681 O.3            1 <1>               -0.4710
     13 C13        -31.0311  11.6196   7.1656 C.3            1 <1>                0.1183
     14 C14        -31.8329  10.6367   8.0317 C.3            1 <1>                0.1016
     15 O15        -33.1165  11.0918   8.3475 O.3            1 <1>               -0.3872
     16 C16        -31.8844   9.2852   7.3425 C.3            1 <1>                0.0256
     17 N17        -33.0774   8.4784   7.4581 N.3            1 <1>               -0.3088
     18 C18        -32.7566   7.1416   6.8976 C.3            1 <1>                0.0108
     19 C19        -32.1769   7.2616   5.4961 C.3            1 <1>               -0.0473
     20 C20        -31.7047   6.4592   7.8094 C.3            1 <1>               -0.0473
     21 C21        -34.0399   6.2876   6.8425 C.3            1 <1>               -0.0473
     22 H21        -27.0306   7.5114   8.6006 H              1 <1>                0.0575
     23 H22        -27.8820   6.4695   7.5274 H              1 <1>                0.0575
     24 H31        -28.5593   8.9944   7.6360 H              1 <1>                0.0487
     25 H32        -28.5541   8.2024   6.1085 H              1 <1>                0.0487
     26 H51        -25.0041  10.0055   5.9836 H              1 <1>                0.0487
     27 H52        -25.6981   8.7903   4.9397 H              1 <1>                0.0487
     28 H61        -24.1268   7.7068   6.4453 H              1 <1>                0.0575
     29 H62        -24.9094   8.4352   7.8629 H              1 <1>                0.0575
     30 H131       -31.5334  11.7405   6.2054 H              1 <1>                0.0724
     31 H132       -30.8088  12.5120   7.7512 H              1 <1>                0.0724
     32 H14        -31.2907  10.5067   8.9688 H              1 <1>                0.0640
     33 HO15       -33.6586  11.0969   7.5554 H              1 <1>                0.2100
     34 H161       -31.0245   8.6940   7.6558 H              1 <1>                0.0451
     35 H162       -31.6442   9.4154   6.2875 H              1 <1>                0.0451
     36 HN17       -33.3407   8.4024   8.4298 H              1 <1>                0.1225
     37 H191       -31.9509   6.2678   5.1090 H              1 <1>                0.0247
     38 H192       -32.9017   7.7493   4.8435 H              1 <1>                0.0247
     39 H193       -31.2626   7.8542   5.5298 H              1 <1>                0.0247
     40 H201       -31.4597   5.4751   7.4091 H              1 <1>                0.0247
     41 H202       -30.8036   7.0712   7.8462 H              1 <1>                0.0247
     42 H203       -32.1106   6.3510   8.8156 H              1 <1>                0.0247
     43 H211       -33.8060   5.3061   6.4310 H              1 <1>                0.0247
     44 H212       -34.4442   6.1731   7.8487 H              1 <1>                0.0247
     45 H213       -34.7775   6.7799   6.2089 H              1 <1>                0.0247
     46 ****       -26.1573   6.6182   6.0028 LP             1 <1>                0.0000
     47 ****       -25.5511   6.2137   7.4641 LP             1 <1>                0.0000
     48 ****       -25.6711  11.4527   5.1164 LP             1 <1>                0.0000
     49 ****       -29.6256  13.3121   5.8876 LP             1 <1>                0.0000
     50 ****       -29.4604  10.6088   7.8733 LP             1 <1>                0.0000
     51 ****       -30.0433  10.0332   6.4606 LP             1 <1>                0.0000
     52 ****       -33.0595  12.0188   8.7182 LP             1 <1>                0.0000
     53 ****       -33.5270  10.4851   9.0283 LP             1 <1>                0.0000
     54 ****       -33.8436   8.8878   6.9628 LP             1 <1>                0.0000
@<TRIPOS>BOND
    1    1    2 1     
    2    1    6 1     
    3    2    3 1     
    4    2   22 1     
    5    2   23 1     
    6    3    4 1     
    7    3   24 1     
    8    3   25 1     
    9    4    7 1     
   10    4    5 1     
   11    5    6 1     
   12    5   26 1     
   13    5   27 1     
   14    6   28 1     
   15    6   29 1     
   16    7    8 ar    
   17    7   11 ar    
   18    8    9 ar    
   19    9   10 ar    
   20   10   11 ar    
   21   11   12 1     
   22   12   13 1     
   23   13   14 1     
   24   13   30 1     
   25   13   31 1     
   26   14   15 1     
   27   14   16 1     
   28   14   32 1     
   29   15   33 1     
   30   16   17 1     
   31   16   34 1     
   32   16   35 1     
   33   17   18 1     
   34   17   36 1     
   35   18   19 1     
   36   18   20 1     
   37   18   21 1     
   38   19   37 1     
   39   19   38 1     
   40   19   39 1     
   41   20   40 1     
   42   20   41 1     
   43   20   42 1     
   44   21   43 1     
   45   21   44 1     
   46   21   45 1     
   47    1   46 1     
   48    1   47 1     
   49    8   48 1     
   50   10   49 1     
   51   12   50 1     
   52   12   51 1     
   53   15   52 1     
   54   15   53 1     
   55   17   54 1     
@<TRIPOS>SUBSTRUCTURE
      1 ****           1
@<TRIPOS>SET
LONE_PAIRS      STATIC     ATOMS    <user>   **** ""
9 46 47 48 49 50 51 52 53 54
DONOR_HYDROGENS      STATIC     ATOMS    <user>   **** ""
2 33 36
ATOM$BLUE        STATIC     ATOMS    COLORGROUP SYSTEM
9 46 47 48 49 50 51 52 53 54
ATOM$RED        STATIC     ATOMS    COLORGROUP SYSTEM
2 33 36
@<TRIPOS>COMMENT
> <Gold.Version>
5.5

> <Gold.Id.Protein>
unknown|dok_beta2|pdb

> <Gold.Protein.RotatedTorsions>
[ 4175 4166 4165 4163 ] final  -66.49 input -179.98 | X-H torsion
[ 1294 1290 1288 1285 ] final   40.23 input -179.99 | X-H torsion
[ 4033 4024 4023 4021 ] final   47.20 input  179.98 | X-H torsion
[ 1412 1408 1406 1403 ] final  116.53 input -179.99 | X-H torsion
[ 2830 2825 2824 2821 ] final  157.61 input -179.98 | X-H torsion
[ 2723 2714 2713 2711 ] final -132.76 input -179.98 | X-H torsion
[ 2773 2768 2767 2764 ] final  -96.11 input  180.00 | X-H torsion

> <Gold.Protein.ActiveResidues>
 TRP109  THR110  ASP113  VAL114  VAL117  THR118  PHE193  TYR199  SER203  SER207 
 PHE208  TRP286  PHE289  PHE290  ASN293  TYR308  ASN312  TYR316 

> <Gold.Protein.RotatedAtoms>
  -35.4177    4.4772    1.4593 H   0  0  0  0  0  0  0  0  0  0  0  0  # atno 1294 bound_to 1290
  -28.0787   14.5367    1.9741 H   0  0  0  0  0  0  0  0  0  0  0  0  # atno 1412 bound_to 1408
  -26.4190    8.0148    2.8832 H   0  0  0  0  0  0  0  0  0  0  0  0  # atno 2723 bound_to 2714
  -24.4940   10.1604    3.8900 H   0  0  0  0  0  0  0  0  0  0  0  0  # atno 2773 bound_to 2768
  -24.6501   12.7873    2.9869 H   0  0  0  0  0  0  0  0  0  0  0  0  # atno 2830 bound_to 2825
  -29.3912    6.3743   10.7317 H   0  0  0  0  0  0  0  0  0  0  0  0  # atno 4033 bound_to 4024
  -36.6377    8.4110    8.5761 H   0  0  0  0  0  0  0  0  0  0  0  0  # atno 4175 bound_to 4166
  -36.3258    9.3379    7.3094 LP  0  0  0  0  0  0  0  0  0  0  0  0  # atno 4597 bound_to 4166
  -37.7994    8.6617    7.5044 LP  0  0  0  0  0  0  0  0  0  0  0  0  # atno 4598 bound_to 4166
  -34.3995    4.4506    2.6937 LP  0  0  0  0  0  0  0  0  0  0  0  0  # atno 4603 bound_to 1290
  -34.1301    3.5307    1.3716 LP  0  0  0  0  0  0  0  0  0  0  0  0  # atno 4604 bound_to 1290
  -28.1757    5.3581   10.9599 LP  0  0  0  0  0  0  0  0  0  0  0  0  # atno 4607 bound_to 4024
  -28.1180    6.8746   11.5630 LP  0  0  0  0  0  0  0  0  0  0  0  0  # atno 4608 bound_to 4024
  -27.7008   15.1234    3.4143 LP  0  0  0  0  0  0  0  0  0  0  0  0  # atno 4611 bound_to 1408
  -26.5543   14.9249    2.2685 LP  0  0  0  0  0  0  0  0  0  0  0  0  # atno 4612 bound_to 1408
  -23.2522   13.4951    2.6627 LP  0  0  0  0  0  0  0  0  0  0  0  0  # atno 4613 bound_to 2825
  -24.6390   14.0469    2.0003 LP  0  0  0  0  0  0  0  0  0  0  0  0  # atno 4614 bound_to 2825

> <Gold.Score>
     Score     S(PLP)   S(hbond)     S(cho)   S(metal)  DE(clash)   DE(tors)     intcor
     74.27     -66.53       2.94       0.00       0.00       0.00       0.63       0.16

> <Gold.PLP.Fitness>
74.2717

> <Gold.PLP.PLP>
-66.5349

> <Gold.PLP.part.hbond>
-3.5273

> <Gold.PLP.part.metal>
0.0000

> <Gold.PLP.part.buried>
-9.6633

> <Gold.PLP.part.nonpolar>
-54.8342

> <Gold.PLP.part.repulsive>
0.1295

> <Gold.PLP.ligand.clash>
0.0000

> <Gold.PLP.ligand.torsion>
0.6283

> <Gold.PLP.Chemscore.Hbond>
2.9440

> <Gold.PLP.Chemscore.CHOScore>
0.0000

> <Gold.PLP.Chemscore.Metal>
0.0000

> <Gold.Chemscore.Hbonds>
donor molecule, donor type, donor heavy atom, donor atom, acceptor molecule, acceptor atom, score
      L1  H    15    33       P1  1334  1.00
      L1  H    17    36       P1  4098  1.00
      P1  H  4097  4104       L1    15  0.94

> <Gold.PLP.Chemscore.Internal.Correction>
0.1615

