#       Name:                C:\Users\porto\OneDrive\projekt\beta2\ligandy\L_3ny9.pdb L_3ny9.pdb 1
#       Creating user name   student
#       Creation time:       Mon Apr 08 16:00:46 2019


#       File generated by GOLD software.
#

@<TRIPOS>MOLECULE
C:\Users\porto\OneDrive\projekt\beta2\ligandy\L_3ny9.pdb L_3ny9.pdb 1
    58    59     1
SMALL
GASTEIGER


@<TRIPOS>ATOM
      1 C1           4.1208  -1.3210   0.2948 C.2            1 <1>                0.3751
      2 N1          -3.8482   0.1520  -0.4172 N.3            1 <1>               -0.3112
      3 O1           5.0948  -1.6900  -0.3392 O.2            1 <1>               -0.2415
      4 C2           4.0148  -3.4840   1.6038 C.3            1 <1>                0.0901
      5 O2           3.5868  -2.1340   1.3828 O.3            1 <1>               -0.4593
      6 C3           2.8058  -4.3630   1.8498 C.3            1 <1>               -0.0306
      7 O3           4.1728   1.0530  -0.4582 O.3            1 <1>               -0.4478
      8 C4           3.4678  -0.0380  -0.0552 C.ar           1 <1>                0.2156
      9 O4          -0.4032   2.2950  -0.5212 O.3            1 <1>               -0.4886
     10 C5           2.0298   0.3200  -0.0632 C.ar           1 <1>                0.0131
     11 O5          -3.6352   2.8630   0.4028 O.3            1 <1>               -0.3872
     12 C6           0.7838  -0.4550   0.2758 C.3            1 <1>               -0.0352
     13 C7           1.9368   1.6570  -0.4832 C.ar           1 <1>                0.0655
     14 C8           3.2738   2.0100  -0.6942 C.ar           1 <1>                0.1398
     15 C9           3.6128   3.2880  -1.1262 C.ar           1 <1>               -0.0185
     16 C10          2.6018   4.2250  -1.3452 C.ar           1 <1>               -0.0548
     17 C11          1.2678   3.8830  -1.1372 C.ar           1 <1>               -0.0191
     18 C12          0.9248   2.6020  -0.7002 C.ar           1 <1>                0.1316
     19 C13         -1.2182   2.7580   0.5628 C.3            1 <1>                0.1166
     20 C14         -2.5322   1.9720   0.5928 C.3            1 <1>                0.1015
     21 C15         -2.5862   0.9080  -0.5002 C.3            1 <1>                0.0254
     22 C16         -3.5882  -1.3070  -0.3132 C.3            1 <1>                0.0021
     23 C17         -4.9112  -2.0560  -0.1812 C.3            1 <1>               -0.0499
     24 C18         -2.8082  -1.8220  -1.5192 C.3            1 <1>               -0.0499
     25 HN1         -4.3652   0.4480   0.3988 H              1 <1>                0.1223
     26 H21          4.6718  -3.5190   2.4728 H              1 <1>                0.0695
     27 H22          4.5518  -3.8430   0.7258 H              1 <1>                0.0695
     28 H31          3.1308  -5.3900   2.0178 H              1 <1>                0.0262
     29 H32          2.2678  -4.0040   2.7268 H              1 <1>                0.0262
     30 H33          2.1478  -4.3280   0.9818 H              1 <1>                0.0262
     31 HO5         -4.4562   2.3660   0.4228 H              1 <1>                0.2100
     32 H61         -0.0902   0.1820   0.1368 H              1 <1>                0.0279
     33 H62          0.7068  -1.3240  -0.3782 H              1 <1>                0.0279
     34 H63          0.8318  -0.7850   1.3138 H              1 <1>                0.0279
     35 H9           4.6488   3.5460  -1.2882 H              1 <1>                0.0654
     36 H10          2.8518   5.2220  -1.6782 H              1 <1>                0.0620
     37 H11          0.4898   4.6110  -1.3142 H              1 <1>                0.0654
     38 H131        -1.4322   3.8180   0.4288 H              1 <1>                0.0723
     39 H132        -0.6872   2.6140   1.5038 H              1 <1>                0.0723
     40 H14         -2.6322   1.4870   1.5638 H              1 <1>                0.0640
     41 H151        -2.5132   1.3870  -1.4772 H              1 <1>                0.0450
     42 H152        -1.7452   0.2240  -0.3832 H              1 <1>                0.0450
     43 H16         -2.9972  -1.4890   0.5838 H              1 <1>                0.0455
     44 H171        -4.7172  -3.1260  -0.1052 H              1 <1>                0.0245
     45 H172        -5.4332  -1.7170   0.7138 H              1 <1>                0.0245
     46 H173        -5.5292  -1.8610  -1.0572 H              1 <1>                0.0245
     47 H181        -2.6352  -2.8930  -1.4102 H              1 <1>                0.0245
     48 H182        -3.3802  -1.6370  -2.4282 H              1 <1>                0.0245
     49 H183        -1.8512  -1.3040  -1.5812 H              1 <1>                0.0245
     50 ****        -4.3744   0.3302  -1.2487 LP             1 <1>                0.0000
     51 ****         5.5371  -2.5586  -0.1159 LP             1 <1>                0.0000
     52 ****         5.4514  -1.1240  -1.0825 LP             1 <1>                0.0000
     53 ****         4.6858   0.8460  -1.2913 LP             1 <1>                0.0000
     54 ****         4.8060   1.3415   0.2601 LP             1 <1>                0.0000
     55 ****        -0.4415   1.2968  -0.4752 LP             1 <1>                0.0000
     56 ****        -0.8629   2.6082  -1.3522 LP             1 <1>                0.0000
     57 ****        -3.5447   3.3213  -0.4814 LP             1 <1>                0.0000
     58 ****        -3.6413   3.5460   1.1332 LP             1 <1>                0.0000
@<TRIPOS>BOND
    1    1    3 2     
    2    1    5 1     
    3    1    8 1     
    4    2   21 1     
    5    2   22 1     
    6    2   25 1     
    7    4    5 1     
    8    4    6 1     
    9    4   26 1     
   10    4   27 1     
   11    6   28 1     
   12    6   29 1     
   13    6   30 1     
   14    7    8 ar    
   15    7   14 ar    
   16    8   10 ar    
   17    9   18 1     
   18    9   19 1     
   19   10   12 1     
   20   10   13 ar    
   21   11   20 1     
   22   11   31 1     
   23   12   32 1     
   24   12   33 1     
   25   12   34 1     
   26   13   14 ar    
   27   13   18 ar    
   28   14   15 ar    
   29   15   16 ar    
   30   15   35 1     
   31   16   17 ar    
   32   16   36 1     
   33   17   18 ar    
   34   17   37 1     
   35   19   20 1     
   36   19   38 1     
   37   19   39 1     
   38   20   21 1     
   39   20   40 1     
   40   21   41 1     
   41   21   42 1     
   42   22   23 1     
   43   22   24 1     
   44   22   43 1     
   45   23   44 1     
   46   23   45 1     
   47   23   46 1     
   48   24   47 1     
   49   24   48 1     
   50   24   49 1     
   51    2   50 1     
   52    3   51 1     
   53    3   52 1     
   54    7   53 1     
   55    7   54 1     
   56    9   55 1     
   57    9   56 1     
   58   11   57 1     
   59   11   58 1     
@<TRIPOS>SUBSTRUCTURE
      1 ****           1
@<TRIPOS>SET
LONE_PAIRS      STATIC     ATOMS    <user>   **** ""
9 50 51 52 53 54 55 56 57 58
DONOR_HYDROGENS      STATIC     ATOMS    <user>   **** ""
2 25 31
ATOM$BLUE        STATIC     ATOMS    COLORGROUP SYSTEM
9 50 51 52 53 54 55 56 57 58
ATOM$RED        STATIC     ATOMS    COLORGROUP SYSTEM
2 25 31
