#       Name:                C:\Users\porto\OneDrive\projekt\beta2\ligandy\L_3ny9.pdb L_3ny9.pdb 1
#       Creating user name   student
#       Creation time:       Mon Apr 08 16:02:22 2019


#       File generated by GOLD software.
#

@<TRIPOS>MOLECULE
C:\Users\porto\OneDrive\projekt\beta2\ligandy\L_3ny9.pdb L_3ny9.pdb 1|3ny9|mol2|1|dock16
    58    59     1
SMALL
GASTEIGER


@<TRIPOS>ATOM
      1 C1         -34.2808   3.1615   8.8278 C.2            1 <1>                0.3751
      2 N1         -28.6707  10.9727   5.8802 N.3            1 <1>               -0.3112
      3 O1         -35.1329   2.3944   8.4127 O.2            1 <1>               -0.2415
      4 C2         -34.0752   1.8968  11.0099 C.3            1 <1>                0.0901
      5 O2         -33.7000   2.9844  10.1549 O.3            1 <1>               -0.4593
      6 C3         -33.4274   2.0754  12.3676 C.3            1 <1>               -0.0306
      7 O3         -34.2871   4.4610   6.7025 O.3            1 <1>               -0.4478
      8 C4         -33.8422   4.2920   7.9766 C.ar           1 <1>                0.2156
      9 O4         -31.3450   8.0694   7.6025 O.3            1 <1>               -0.4886
     10 C5         -32.9168   5.4068   8.2880 C.ar           1 <1>                0.0131
     11 O5         -31.9999  10.6597   7.4583 O.3            1 <1>               -0.3872
     12 C6         -32.1246   5.7614   9.5187 C.3            1 <1>               -0.0352
     13 C7         -32.8457   6.2195   7.1447 C.ar           1 <1>                0.0655
     14 C8         -33.6999   5.5693   6.2478 C.ar           1 <1>                0.1398
     15 C9         -33.9056   6.0737   4.9680 C.ar           1 <1>               -0.0185
     16 C10        -33.2449   7.2403   4.5798 C.ar           1 <1>               -0.0548
     17 C11        -32.3920   7.8944   5.4656 C.ar           1 <1>               -0.0191
     18 C12        -32.1809   7.3884   6.7497 C.ar           1 <1>                0.1316
     19 C13        -30.2951   8.9559   7.1955 C.3            1 <1>                0.1166
     20 C14        -30.8982  10.2505   6.6427 C.3            1 <1>                0.1015
     21 C15        -29.8802  11.3873   6.6127 C.3            1 <1>                0.0254
     22 C16        -27.6632  12.0642   5.8564 C.3            1 <1>                0.0021
     23 C17        -26.4320  11.6093   5.0779 C.3            1 <1>               -0.0499
     24 C18        -28.2352  13.3382   5.2417 C.3            1 <1>               -0.0499
     25 HN1        -28.2636  10.1657   6.3316 H              1 <1>                0.1223
     26 H21        -33.7419   0.9571  10.5696 H              1 <1>                0.0695
     27 H22        -35.1591   1.8820  11.1241 H              1 <1>                0.0695
     28 H31        -33.7126   1.2486  13.0184 H              1 <1>                0.0262
     29 H32        -32.3438   2.0915  12.2540 H              1 <1>                0.0262
     30 H33        -33.7594   3.0152  12.8083 H              1 <1>                0.0262
     31 HO5        -32.6967  11.0147   6.9016 H              1 <1>                0.2100
     32 H61        -31.5588   6.6755   9.3366 H              1 <1>                0.0279
     33 H62        -32.8047   5.9168  10.3567 H              1 <1>                0.0279
     34 H63        -31.4369   4.9491   9.7552 H              1 <1>                0.0279
     35 H9         -34.5702   5.5634   4.2869 H              1 <1>                0.0654
     36 H10        -33.3939   7.6412   3.5876 H              1 <1>                0.0620
     37 H11        -31.8884   8.8000   5.1610 H              1 <1>                0.0654
     38 H131       -29.6944   8.4763   6.4231 H              1 <1>                0.0723
     39 H132       -29.6621   9.1869   8.0523 H              1 <1>                0.0723
     40 H14        -31.2561  10.0694   5.6292 H              1 <1>                0.0640
     41 H151       -30.3210  12.2567   6.1236 H              1 <1>                0.0450
     42 H152       -29.6105  11.6605   7.6332 H              1 <1>                0.0450
     43 H16        -27.3636  12.2796   6.8815 H              1 <1>                0.0455
     44 H171       -25.6947  12.4121   5.0621 H              1 <1>                0.0245
     45 H172       -26.0019  10.7306   5.5589 H              1 <1>                0.0245
     46 H173       -26.7183  11.3600   4.0566 H              1 <1>                0.0245
     47 H181       -27.4714  14.1162   5.2403 H              1 <1>                0.0245
     48 H182       -28.5517  13.1378   4.2183 H              1 <1>                0.0245
     49 H183       -29.0919  13.6714   5.8275 H              1 <1>                0.0245
     50 ****       -28.9343  10.7527   4.9410 LP             1 <1>                0.0000
     51 ****       -35.4414   1.6334   8.9834 LP             1 <1>                0.0000
     52 ****       -35.5232   2.5263   7.5015 LP             1 <1>                0.0000
     53 ****       -35.2814   4.5668   6.6936 LP             1 <1>                0.0000
     54 ****       -34.0303   3.6762   6.1386 LP             1 <1>                0.0000
     55 ****       -30.8993   7.3659   8.1561 LP             1 <1>                0.0000
     56 ****       -31.9467   8.6185   8.1826 LP             1 <1>                0.0000
     57 ****       -31.6957  11.3632   8.1005 LP             1 <1>                0.0000
     58 ****       -32.3485   9.8724   7.9668 LP             1 <1>                0.0000
@<TRIPOS>BOND
    1    1    3 2     
    2    1    5 1     
    3    1    8 1     
    4    2   21 1     
    5    2   22 1     
    6    2   25 1     
    7    4    5 1     
    8    4    6 1     
    9    4   26 1     
   10    4   27 1     
   11    6   28 1     
   12    6   29 1     
   13    6   30 1     
   14    7    8 ar    
   15    7   14 ar    
   16    8   10 ar    
   17    9   18 1     
   18    9   19 1     
   19   10   12 1     
   20   10   13 ar    
   21   11   20 1     
   22   11   31 1     
   23   12   32 1     
   24   12   33 1     
   25   12   34 1     
   26   13   14 ar    
   27   13   18 ar    
   28   14   15 ar    
   29   15   16 ar    
   30   15   35 1     
   31   16   17 ar    
   32   16   36 1     
   33   17   18 ar    
   34   17   37 1     
   35   19   20 1     
   36   19   38 1     
   37   19   39 1     
   38   20   21 1     
   39   20   40 1     
   40   21   41 1     
   41   21   42 1     
   42   22   23 1     
   43   22   24 1     
   44   22   43 1     
   45   23   44 1     
   46   23   45 1     
   47   23   46 1     
   48   24   47 1     
   49   24   48 1     
   50   24   49 1     
   51    2   50 1     
   52    3   51 1     
   53    3   52 1     
   54    7   53 1     
   55    7   54 1     
   56    9   55 1     
   57    9   56 1     
   58   11   57 1     
   59   11   58 1     
@<TRIPOS>SUBSTRUCTURE
      1 ****           1
@<TRIPOS>SET
LONE_PAIRS      STATIC     ATOMS    <user>   **** ""
9 50 51 52 53 54 55 56 57 58
DONOR_HYDROGENS      STATIC     ATOMS    <user>   **** ""
2 25 31
ATOM$BLUE        STATIC     ATOMS    COLORGROUP SYSTEM
9 50 51 52 53 54 55 56 57 58
ATOM$RED        STATIC     ATOMS    COLORGROUP SYSTEM
2 25 31
@<TRIPOS>COMMENT
> <Gold.Version>
5.5

> <Gold.Id.Protein>
unknown|dok_beta2|pdb

> <Gold.Protein.RotatedTorsions>
[ 4175 4166 4165 4163 ] final -175.26 input -179.98 | X-H torsion
[ 1294 1290 1288 1285 ] final -157.30 input -179.99 | X-H torsion
[ 4033 4024 4023 4021 ] final  -87.59 input  179.98 | X-H torsion
[ 1412 1408 1406 1403 ] final   95.05 input -179.99 | X-H torsion
[ 2830 2825 2824 2821 ] final  170.78 input -179.98 | X-H torsion
[ 2723 2714 2713 2711 ] final -174.76 input -179.98 | X-H torsion
[ 2773 2768 2767 2764 ] final  -49.53 input  180.00 | X-H torsion

> <Gold.Protein.ActiveResidues>
 TRP109  THR110  ASP113  VAL114  VAL117  THR118  PHE193  TYR199  SER203  SER207 
 PHE208  TRP286  PHE289  PHE290  ASN293  TYR308  ASN312  TYR316 

> <Gold.Protein.RotatedAtoms>
  -33.8837    3.7111    1.9684 H   0  0  0  0  0  0  0  0  0  0  0  0  # atno 1294 bound_to 1290
  -28.2680   14.5998    2.2460 H   0  0  0  0  0  0  0  0  0  0  0  0  # atno 1412 bound_to 1408
  -26.8011    7.4911    2.8639 H   0  0  0  0  0  0  0  0  0  0  0  0  # atno 2723 bound_to 2714
  -24.0781   10.7243    3.7448 H   0  0  0  0  0  0  0  0  0  0  0  0  # atno 2773 bound_to 2768
  -24.8129   12.8741    2.8921 H   0  0  0  0  0  0  0  0  0  0  0  0  # atno 2830 bound_to 2825
  -28.0255    5.4840   11.1004 H   0  0  0  0  0  0  0  0  0  0  0  0  # atno 4033 bound_to 4024
  -36.2372    9.2859    7.4635 H   0  0  0  0  0  0  0  0  0  0  0  0  # atno 4175 bound_to 4166
  -37.7492    8.7712    7.3650 LP  0  0  0  0  0  0  0  0  0  0  0  0  # atno 4597 bound_to 4166
  -36.7935    8.3163    8.6085 LP  0  0  0  0  0  0  0  0  0  0  0  0  # atno 4598 bound_to 4166
  -35.1427    4.0365    1.0356 LP  0  0  0  0  0  0  0  0  0  0  0  0  # atno 4603 bound_to 1290
  -34.9855    4.7433    2.4992 LP  0  0  0  0  0  0  0  0  0  0  0  0  # atno 4604 bound_to 1290
  -28.3164    7.0040   11.5094 LP  0  0  0  0  0  0  0  0  0  0  0  0  # atno 4607 bound_to 4024
  -29.3997    6.1561   10.6294 LP  0  0  0  0  0  0  0  0  0  0  0  0  # atno 4608 bound_to 4024
  -27.3562   15.1921    3.4203 LP  0  0  0  0  0  0  0  0  0  0  0  0  # atno 4611 bound_to 1408
  -26.7016   14.7905    1.9792 LP  0  0  0  0  0  0  0  0  0  0  0  0  # atno 4612 bound_to 1408
  -23.2805   13.3231    2.7906 LP  0  0  0  0  0  0  0  0  0  0  0  0  # atno 4613 bound_to 2825
  -24.4409   14.1285    1.9711 LP  0  0  0  0  0  0  0  0  0  0  0  0  # atno 4614 bound_to 2825

> <Gold.Score>
     Score     S(PLP)   S(hbond)     S(cho)   S(metal)  DE(clash)   DE(tors)     intcor
     72.07     -70.04       0.99       0.00       0.00       0.00       0.60       0.25

> <Gold.PLP.Fitness>
72.0706

> <Gold.PLP.PLP>
-70.0356

> <Gold.PLP.part.hbond>
-1.0000

> <Gold.PLP.part.metal>
0.0000

> <Gold.PLP.part.buried>
-8.2714

> <Gold.PLP.part.nonpolar>
-63.6862

> <Gold.PLP.part.repulsive>
0.2453

> <Gold.PLP.ligand.clash>
0.0000

> <Gold.PLP.ligand.torsion>
0.5967

> <Gold.PLP.Chemscore.Hbond>
0.9913

> <Gold.PLP.Chemscore.CHOScore>
0.0000

> <Gold.PLP.Chemscore.Metal>
0.0000

> <Gold.Chemscore.Hbonds>
donor molecule, donor type, donor heavy atom, donor atom, acceptor molecule, acceptor atom, score
      L1  H    11    31       P1  1334  0.99

> <Gold.PLP.Chemscore.Internal.Correction>
0.2547

