#       Name:                C:\Users\porto\OneDrive\projekt\beta2\ligandy\L_4ldl.pdb L_4ldl.pdb 1
#       Creating user name   student
#       Creation time:       Mon Apr 08 15:46:08 2019


#       File generated by GOLD software.
#

@<TRIPOS>MOLECULE
C:\Users\porto\OneDrive\projekt\beta2\ligandy\L_4ldl.pdb L_4ldl.pdb 1|4ldl|mol2|1|dock2
    55    56     1
SMALL
GASTEIGER


@<TRIPOS>ATOM
      1 CAA        -32.5177   7.0429   5.0987 C.3            1 <1>               -0.0467
      2 CAB        -32.4566   7.2977   6.6015 C.3            1 <1>                0.0176
      3 CAC        -31.3897   6.4199   7.2442 C.3            1 <1>               -0.0467
      4 CAD        -33.8201   7.0860   7.2638 C.3            1 <1>               -0.0098
      5 CAE        -34.1128   5.6369   7.6020 C.ar           1 <1>               -0.0454
      6 CAF        -34.4217   4.7139   6.6055 C.ar           1 <1>               -0.0551
      7 CAG        -34.6953   3.3920   6.9333 C.ar           1 <1>               -0.0199
      8 CAH        -34.6752   2.9867   8.2643 C.ar           1 <1>                0.1169
      9 CAJ        -34.3782   3.9067   9.2626 C.ar           1 <1>               -0.0199
     10 CAK        -34.1054   5.2286   8.9327 C.ar           1 <1>               -0.0551
     11 CAM        -30.7829   9.1082   6.2475 C.3            1 <1>                0.0266
     12 CAN        -30.3344  10.4151   6.8898 C.3            1 <1>                0.0927
     13 CAP        -29.0330  10.8006   6.2975 C.ar           1 <1>               -0.0143
     14 CAQ        -28.7818  12.1133   5.9164 C.ar           1 <1>               -0.0524
     15 CAR        -27.5502  12.4482   5.3629 C.ar           1 <1>               -0.0162
     16 CAS        -26.5700  11.4756   5.1973 C.ar           1 <1>                0.1582
     17 CAU        -26.8196  10.1709   5.5831 C.ar           1 <1>                0.1586
     18 CAW        -28.0493   9.8326   6.1340 C.ar           1 <1>               -0.0109
     19 NAL        -32.0575   8.6774   6.7894 N.3            1 <1>               -0.3080
     20 OAI        -34.9451   1.6914   8.5876 O.3            1 <1>               -0.5068
     21 OAO        -31.3267  11.4272   6.6853 O.3            1 <1>               -0.3859
     22 OAT        -25.3624  11.8048   4.6566 O.3            1 <1>               -0.5033
     23 OAV        -25.8617   9.2165   5.4228 O.3            1 <1>               -0.5033
     24 HAA1       -33.2841   7.6767   4.6529 H              1 <1>                0.0247
     25 HAA2       -31.5513   7.2728   4.6513 H              1 <1>                0.0247
     26 HAA3       -32.7615   5.9963   4.9170 H              1 <1>                0.0247
     27 HAC1       -31.3572   6.6125   8.3162 H              1 <1>                0.0247
     28 HAC2       -31.6288   5.3710   7.0712 H              1 <1>                0.0247
     29 HAC3       -30.4186   6.6475   6.8056 H              1 <1>                0.0247
     30 HAD1       -34.6028   7.4699   6.6101 H              1 <1>                0.0331
     31 HAD2       -33.8795   7.6881   8.1705 H              1 <1>                0.0331
     32 HAF        -34.4497   5.0245   5.5716 H              1 <1>                0.0621
     33 HAG        -34.9241   2.6787   6.1547 H              1 <1>                0.0654
     34 HAJ        -34.3597   3.5946  10.2966 H              1 <1>                0.0654
     35 HAK        -33.8864   5.9406   9.7144 H              1 <1>                0.0621
     36 HAM1       -30.0323   8.3381   6.4284 H              1 <1>                0.0453
     37 HAM2       -30.8743   9.2465   5.1706 H              1 <1>                0.0453
     38 HAN        -30.2044  10.2581   7.9603 H              1 <1>                0.0656
     39 HAQ        -29.5411  12.8689   6.0502 H              1 <1>                0.0622
     40 HAR        -27.3527  13.4662   5.0602 H              1 <1>                0.0655
     41 HAW        -28.2398   8.8134   6.4356 H              1 <1>                0.0659
     42 HNAL       -32.7391   9.2872   6.3610 H              1 <1>                0.1225
     43 HOAI       -34.8901   1.5803   9.5395 H              1 <1>                0.2921
     44 HOAO       -31.0372  12.2472   7.0924 H              1 <1>                0.2103
     45 HOAT       -24.8071  11.0229   4.6133 H              1 <1>                0.2923
     46 HOAV       -26.1937   8.3731   5.7387 H              1 <1>                0.2923
     47 ****       -31.9807   8.7329   7.7849 LP             1 <1>                0.0000
     48 ****       -34.2799   1.0915   8.1432 LP             1 <1>                0.0000
     49 ****       -35.8661   1.4556   8.2774 LP             1 <1>                0.0000
     50 ****       -32.1894  11.1363   7.0989 LP             1 <1>                0.0000
     51 ****       -31.4590  11.5706   5.7045 LP             1 <1>                0.0000
     52 ****       -24.9195  12.4969   5.2266 LP             1 <1>                0.0000
     53 ****       -25.4978  12.1688   3.7351 LP             1 <1>                0.0000
     54 ****       -25.0474   9.4706   5.9446 LP             1 <1>                0.0000
     55 ****       -25.6262   9.1401   4.4539 LP             1 <1>                0.0000
@<TRIPOS>BOND
    1    1    2 1     
    2    1   24 1     
    3    1   25 1     
    4    1   26 1     
    5    2    3 1     
    6    2    4 1     
    7    2   19 1     
    8    3   27 1     
    9    3   28 1     
   10    3   29 1     
   11    4    5 1     
   12    4   30 1     
   13    4   31 1     
   14    5    6 ar    
   15    5   10 ar    
   16    6    7 ar    
   17    6   32 1     
   18    7    8 ar    
   19    7   33 1     
   20    8    9 ar    
   21    8   20 1     
   22    9   10 ar    
   23    9   34 1     
   24   10   35 1     
   25   11   12 1     
   26   11   19 1     
   27   11   36 1     
   28   11   37 1     
   29   12   13 1     
   30   12   21 1     
   31   12   38 1     
   32   13   14 ar    
   33   13   18 ar    
   34   14   15 ar    
   35   14   39 1     
   36   15   16 ar    
   37   15   40 1     
   38   16   17 ar    
   39   16   22 1     
   40   17   18 ar    
   41   17   23 1     
   42   18   41 1     
   43   19   42 1     
   44   20   43 1     
   45   21   44 1     
   46   22   45 1     
   47   23   46 1     
   48   19   47 1     
   49   20   48 1     
   50   20   49 1     
   51   21   50 1     
   52   21   51 1     
   53   22   52 1     
   54   22   53 1     
   55   23   54 1     
   56   23   55 1     
@<TRIPOS>SUBSTRUCTURE
      1 ****           1
@<TRIPOS>SET
LONE_PAIRS      STATIC     ATOMS    <user>   **** ""
9 47 48 49 50 51 52 53 54 55
DONOR_HYDROGENS      STATIC     ATOMS    <user>   **** ""
5 42 43 44 45 46
ATOM$BLUE        STATIC     ATOMS    COLORGROUP SYSTEM
9 47 48 49 50 51 52 53 54 55
ATOM$RED        STATIC     ATOMS    COLORGROUP SYSTEM
5 42 43 44 45 46
@<TRIPOS>COMMENT
> <Gold.Version>
5.5

> <Gold.Id.Protein>
unknown|dok_beta2|pdb

> <Gold.Protein.RotatedTorsions>
[ 4175 4166 4165 4163 ] final  120.96 input -179.98 | X-H torsion
[ 1294 1290 1288 1285 ] final -167.33 input -179.99 | X-H torsion
[ 4033 4024 4023 4021 ] final    2.79 input  179.98 | X-H torsion
[ 1412 1408 1406 1403 ] final -130.77 input -179.99 | X-H torsion
[ 2830 2825 2824 2821 ] final  160.33 input -179.98 | X-H torsion
[ 2723 2714 2713 2711 ] final   90.02 input -179.98 | X-H torsion
[ 2773 2768 2767 2764 ] final -122.34 input  180.00 | X-H torsion

> <Gold.Protein.ActiveResidues>
 TRP109  THR110  ASP113  VAL114  VAL117  THR118  PHE193  TYR199  SER203  SER207 
 PHE208  TRP286  PHE289  PHE290  ASN293  TYR308  ASN312  TYR316 

> <Gold.Protein.RotatedAtoms>
  -33.9106    3.6497    1.8250 H   0  0  0  0  0  0  0  0  0  0  0  0  # atno 1294 bound_to 1290
  -26.6281   14.8902    2.1746 H   0  0  0  0  0  0  0  0  0  0  0  0  # atno 1412 bound_to 1408
  -26.9133    7.0152    1.6199 H   0  0  0  0  0  0  0  0  0  0  0  0  # atno 2723 bound_to 2714
  -24.6616    9.8227    3.7272 H   0  0  0  0  0  0  0  0  0  0  0  0  # atno 2773 bound_to 2768
  -24.6860   12.8025    2.9690 H   0  0  0  0  0  0  0  0  0  0  0  0  # atno 2830 bound_to 2825
  -29.1809    5.7368   10.5993 H   0  0  0  0  0  0  0  0  0  0  0  0  # atno 4033 bound_to 4024
  -37.0930    9.2434    7.0398 H   0  0  0  0  0  0  0  0  0  0  0  0  # atno 4175 bound_to 4166
  -37.5888    8.2767    8.2148 LP  0  0  0  0  0  0  0  0  0  0  0  0  # atno 4597 bound_to 4166
  -36.0618    8.8551    8.2004 LP  0  0  0  0  0  0  0  0  0  0  0  0  # atno 4598 bound_to 4166
  -35.2488    4.1450    1.1001 LP  0  0  0  0  0  0  0  0  0  0  0  0  # atno 4603 bound_to 1290
  -34.8513    4.6987    2.5841 LP  0  0  0  0  0  0  0  0  0  0  0  0  # atno 4604 bound_to 1290
  -27.7629    5.7980   11.3394 LP  0  0  0  0  0  0  0  0  0  0  0  0  # atno 4607 bound_to 4024
  -28.7498    7.0988   11.3214 LP  0  0  0  0  0  0  0  0  0  0  0  0  # atno 4608 bound_to 4024
  -28.1815   14.5284    2.0436 LP  0  0  0  0  0  0  0  0  0  0  0  0  # atno 4611 bound_to 1408
  -27.5852   15.1516    3.4303 LP  0  0  0  0  0  0  0  0  0  0  0  0  # atno 4612 bound_to 1408
  -23.2540   13.4596    2.6898 LP  0  0  0  0  0  0  0  0  0  0  0  0  # atno 4613 bound_to 2825
  -24.5998   14.0666    1.9918 LP  0  0  0  0  0  0  0  0  0  0  0  0  # atno 4614 bound_to 2825

> <Gold.Score>
     Score     S(PLP)   S(hbond)     S(cho)   S(metal)  DE(clash)   DE(tors)     intcor
     65.59     -60.99       1.53       0.00       0.00       0.00       0.00       0.00

> <Gold.PLP.Fitness>
65.5923

> <Gold.PLP.PLP>
-60.9933

> <Gold.PLP.part.hbond>
-4.8061

> <Gold.PLP.part.metal>
0.0000

> <Gold.PLP.part.buried>
-5.5771

> <Gold.PLP.part.nonpolar>
-51.1019

> <Gold.PLP.part.repulsive>
0.0000

> <Gold.PLP.ligand.clash>
0.0000

> <Gold.PLP.ligand.torsion>
0.0000

> <Gold.PLP.Chemscore.Hbond>
1.5330

> <Gold.PLP.Chemscore.CHOScore>
0.0000

> <Gold.PLP.Chemscore.Metal>
0.0000

> <Gold.Chemscore.Hbonds>
donor molecule, donor type, donor heavy atom, donor atom, acceptor molecule, acceptor atom, score
      P1  H  2825  2830       L1    22  0.69
      P1  H  2768  2773       L1    23  0.84

> <Gold.PLP.Chemscore.Internal.Correction>
0.0000

