#       Name:                C:\Users\porto\OneDrive\projekt\beta1\ligandy\L_6h7m.pdb L_6h7m.pdb 1
#       Creating user name   student
#       Creation time:       Mon Apr 08 15:35:28 2019


#       File generated by GOLD software.
#

@<TRIPOS>MOLECULE
C:\Users\porto\OneDrive\projekt\beta1\ligandy\L_6h7m.pdb L_6h7m.pdb 1|6h7m|mol2|1|dock14
    45    45     1
SMALL
GASTEIGER


@<TRIPOS>ATOM
      1 C1         -23.1217   6.4938  16.6378 C.3            1 <1>                0.0926
      2 N1         -23.0177   5.1230  14.5926 N.3            1 <1>               -0.3086
      3 O1         -21.1416  11.5841  18.2008 O.3            1 <1>               -0.5064
      4 C2         -23.9904  10.9318  18.7668 C.3            1 <1>                0.0727
      5 O2         -24.8151  10.2784  19.7484 O.3            1 <1>               -0.3903
      6 C3         -23.1818   6.4694  15.1140 C.3            1 <1>                0.0266
      7 O3         -24.3983   6.1802  17.2080 O.3            1 <1>               -0.3859
      8 C4         -24.1440   4.3704  14.0455 C.3            1 <1>                0.0108
      9 C5         -23.5940   3.2102  13.1832 C.3            1 <1>               -0.0473
     10 C6         -25.0437   5.3038  13.2129 C.3            1 <1>               -0.0473
     11 C7         -24.9519   3.8268  15.2365 C.3            1 <1>               -0.0473
     12 C8         -22.5770   7.8257  17.0355 C.ar           1 <1>               -0.0174
     13 C9         -21.2508   8.1936  16.7984 C.ar           1 <1>               -0.0526
     14 C10        -20.7795   9.4514  17.1832 C.ar           1 <1>               -0.0195
     15 C11        -21.6166  10.3680  17.8289 C.ar           1 <1>                0.1222
     16 C12        -23.0219   9.9844  18.0937 C.ar           1 <1>                0.0195
     17 C13        -23.4463   8.7226  17.6833 C.ar           1 <1>               -0.0472
     18 H1         -22.4128   5.7307  16.9585 H              1 <1>                0.0656
     19 HN1        -22.6252   4.6214  15.3765 H              1 <1>                0.1225
     20 HO1        -21.3634  12.2335  17.5300 H              1 <1>                0.2921
     21 H21        -24.6249  11.3970  18.0128 H              1 <1>                0.0608
     22 H22        -23.4347  11.7412  19.2407 H              1 <1>                0.0608
     23 HO2        -24.9461   9.3607  19.4981 H              1 <1>                0.2098
     24 H31        -22.4003   7.1123  14.7092 H              1 <1>                0.0453
     25 H32        -24.1384   6.8731  14.7827 H              1 <1>                0.0453
     26 HO3        -24.6323   6.8479  17.8571 H              1 <1>                0.2103
     27 H51        -24.4246   2.6395  12.7682 H              1 <1>                0.0247
     28 H52        -22.9901   3.6149  12.3704 H              1 <1>                0.0247
     29 H53        -22.9787   2.5572  13.8021 H              1 <1>                0.0247
     30 H61        -25.8814   4.7356  12.8082 H              1 <1>                0.0247
     31 H62        -25.4223   6.1056  13.8470 H              1 <1>                0.0247
     32 H63        -24.4653   5.7316  12.3936 H              1 <1>                0.0247
     33 H71        -25.8041   3.2568  14.8680 H              1 <1>                0.0247
     34 H72        -24.3166   3.1797  15.8416 H              1 <1>                0.0247
     35 H73        -25.3069   4.6587  15.8450 H              1 <1>                0.0247
     36 H9         -20.5774   7.5033  16.3125 H              1 <1>                0.0622
     37 H10        -19.7546   9.7282  16.9830 H              1 <1>                0.0654
     38 H13        -24.4710   8.4394  17.8733 H              1 <1>                0.0626
     39 ****       -22.4743   5.2165  13.7583 LP             1 <1>                0.0000
     40 ****       -20.1480  11.5367  18.3031 LP             1 <1>                0.0000
     41 ****       -21.5541  11.8507  19.0719 LP             1 <1>                0.0000
     42 ****       -25.7010  10.7395  19.7992 LP             1 <1>                0.0000
     43 ****       -24.3663  10.3194  20.6411 LP             1 <1>                0.0000
     44 ****       -24.3543   5.2852  17.6517 LP             1 <1>                0.0000
     45 ****       -25.0900   6.1607  16.4860 LP             1 <1>                0.0000
@<TRIPOS>BOND
    1    1    6 1     
    2    1    7 1     
    3    1   12 1     
    4    1   18 1     
    5    2    8 1     
    6    2    6 1     
    7    2   19 1     
    8    3   15 1     
    9    3   20 1     
   10    4   16 1     
   11    4    5 1     
   12    4   21 1     
   13    4   22 1     
   14    5   23 1     
   15    6   24 1     
   16    6   25 1     
   17    7   26 1     
   18    8    9 1     
   19    8   10 1     
   20    8   11 1     
   21    9   27 1     
   22    9   28 1     
   23    9   29 1     
   24   10   30 1     
   25   10   31 1     
   26   10   32 1     
   27   11   33 1     
   28   11   34 1     
   29   11   35 1     
   30   12   13 ar    
   31   12   17 ar    
   32   13   14 ar    
   33   13   36 1     
   34   14   15 ar    
   35   14   37 1     
   36   15   16 ar    
   37   16   17 ar    
   38   17   38 1     
   39    2   39 1     
   40    3   40 1     
   41    3   41 1     
   42    5   42 1     
   43    5   43 1     
   44    7   44 1     
   45    7   45 1     
@<TRIPOS>SUBSTRUCTURE
      1 ****           1
@<TRIPOS>SET
LONE_PAIRS      STATIC     ATOMS    <user>   **** ""
7 39 40 41 42 43 44 45
DONOR_HYDROGENS      STATIC     ATOMS    <user>   **** ""
4 19 20 23 26
ATOM$BLUE        STATIC     ATOMS    COLORGROUP SYSTEM
7 39 40 41 42 43 44 45
ATOM$RED        STATIC     ATOMS    COLORGROUP SYSTEM
4 19 20 23 26
@<TRIPOS>COMMENT
> <Gold.Version>
5.5

> <Gold.Id.Protein>
unknown|bialko_beta1|pdb

> <Gold.Protein.ActiveResidues>
 ALA86   ASP87   VAL90   VAL94   VAL95   GLY98   ALA99   LEU101  VAL102  CYS114 
 GLU115  TRP117  THR118  SER119  LEU120  ASP121  VAL122  CYS124  VAL125  THR126 
 SER128  SER173  PHE174  ILE177  CYS199  ASP200  PHE201  TYR207  SER215  PHE299 
 TRP303  PHE306  PHE307  ASN310  PHE325  VAL326  ASN329  TRP330  GLY332  TYR333 
 SER336 

> <Gold.Score>
     Score         DG    S(hbond)    S(metal)    S(lipo)     H(rot)  DE(clash)    DE(int)     intcor
     23.82     -25.34       1.79        0.00     194.48       3.47       0.21       1.31       0.03

> <Gold.Chemscore.Fitness>
23.8176

> <Gold.Chemscore.DG>
-25.3401

> <Gold.Chemscore.ZeroCoef>
-5.4800

> <Gold.Chemscore.Hbond>
1.7907

> <Gold.Chemscore.Metal>
0.0000

> <Gold.Chemscore.Lipo>
194.4846

> <Gold.Chemscore.Internal_Hbond>
0.0000

> <Gold.Chemscore.DEClash>
0.2134

> <Gold.Chemscore.DEInternal>
1.3091

> <Gold.Chemscore.Rot>
3.4670

> <Gold.Chemscore.Internal.Correction>
0.0265

> <Gold.Chemscore.Hbonds>
donor molecule, donor type, donor heavy atom, donor atom, acceptor molecule, acceptor atom, score
      L1  H     5    23       P1  2066  0.99
      L1  H     7    26       P1  2066  0.80

> <Gold.Chemscore.Hbond.Weighted>
-5.9811

> <Gold.Chemscore.Metal.Weighted>
-0.0000

> <Gold.Chemscore.Lipo.Weighted>
-22.7547

> <Gold.Chemscore.Internal_Hbond.Weighted>
0.0000

> <Gold.Chemscore.DEClash.Weighted>
0.2134

> <Gold.Chemscore.DEInternal.Weighted>
1.3091

> <Gold.Chemscore.Rot.Weighted>
8.8756

> <Gold.Chemscore.Internal.Correction.Weighted>
0.0265

