#       Name:                C:\Users\porto\OneDrive\projekt\beta1\ligandy\L_6h7n.pdb L_6h7n.pdb 1
#       Creating user name   student
#       Creation time:       Mon Apr 08 15:39:09 2019


#       File generated by GOLD software.
#

@<TRIPOS>MOLECULE
C:\Users\porto\OneDrive\projekt\beta1\ligandy\L_6h7n.pdb L_6h7n.pdb 1|6h7n|mol2|1|dock36
    60    61     1
SMALL
GASTEIGER


@<TRIPOS>ATOM
      1 C1         -24.4831  10.8951  23.7340 C.3            1 <1>                0.0396
      2 N1         -24.3860  10.1711  22.4685 N.am           1 <1>               -0.2813
      3 O1         -23.2878   9.1287  24.8625 O.3            1 <1>               -0.3767
      4 C2         -23.3177  10.5283  24.6159 C.3            1 <1>                0.0635
      5 N2         -24.7124  10.1522  20.1650 N.am           1 <1>               -0.2980
      6 O2         -24.3737  12.0632  21.2301 O.2            1 <1>               -0.2526
      7 C3         -23.1381   8.4265  23.6341 C.3            1 <1>                0.0635
      8 N3         -23.3510   8.9271  18.1838 N.3            1 <1>               -0.3119
      9 O3         -23.0793   5.0351  15.3742 O.3            1 <1>               -0.4894
     10 C4         -24.2533   8.7291  22.6625 C.3            1 <1>                0.0396
     11 O4         -23.9965   4.1687  10.0040 O.3            1 <1>               -0.5068
     12 C5         -24.4707  10.8381  21.2660 C.2            1 <1>                0.3024
     13 O5         -24.0486   6.3855  17.4531 O.3            1 <1>               -0.3872
     14 C6         -24.8622  10.7875  18.8618 C.3            1 <1>                0.0256
     15 C7         -23.8934  10.2418  17.8325 C.3            1 <1>                0.0116
     16 C8         -22.6003   8.3050  17.0928 C.3            1 <1>                0.0252
     17 C9         -23.3507   7.1356  16.4684 C.3            1 <1>                0.1015
     18 C10        -22.3785   6.2319  15.7415 C.3            1 <1>                0.1166
     19 C11        -23.3050   4.7516  14.0495 C.ar           1 <1>                0.1209
     20 C12        -23.3956   5.8409  13.1930 C.ar           1 <1>               -0.0165
     21 C13        -23.6227   5.6515  11.8372 C.ar           1 <1>               -0.0167
     22 C14        -23.7689   4.3712  11.3281 C.ar           1 <1>                0.1171
     23 C15        -23.6814   3.2859  12.1802 C.ar           1 <1>               -0.0167
     24 C16        -23.4517   3.4699  13.5327 C.ar           1 <1>               -0.0165
     25 H11        -25.4144  10.6294  24.2334 H              1 <1>                0.0488
     26 H12        -24.4688  11.9674  23.5402 H              1 <1>                0.0488
     27 H21        -23.3975  11.0616  25.5632 H              1 <1>                0.0575
     28 H22        -22.3880  10.8321  24.1342 H              1 <1>                0.0575
     29 HN2        -24.8003   9.1464  20.2057 H              1 <1>                0.1503
     30 H31        -23.1091   7.3550  23.8311 H              1 <1>                0.0575
     31 H32        -22.1821   8.6881  23.1816 H              1 <1>                0.0575
     32 HN3        -24.1280   8.3346  18.4398 H              1 <1>                0.1221
     33 H41        -24.0400   8.2517  21.7056 H              1 <1>                0.0488
     34 H42        -25.1900   8.3267  23.0486 H              1 <1>                0.0488
     35 HO4        -23.3385   4.6412   9.4897 H              1 <1>                0.2921
     36 HO5        -24.5064   6.9848  18.0474 H              1 <1>                0.2100
     37 H61        -24.7151  11.8629  18.9643 H              1 <1>                0.0475
     38 H62        -25.8830  10.6498  18.5067 H              1 <1>                0.0475
     39 H71        -24.3902  10.1807  16.8638 H              1 <1>                0.0439
     40 H72        -23.0740  10.9471  17.6974 H              1 <1>                0.0439
     41 H81        -21.6365   7.9592  17.4667 H              1 <1>                0.0450
     42 H82        -22.3890   9.0513  16.3267 H              1 <1>                0.0450
     43 H9         -24.0711   7.5250  15.7496 H              1 <1>                0.0640
     44 H101       -22.0199   6.7334  14.8421 H              1 <1>                0.0723
     45 H102       -21.5516   5.9794  16.4056 H              1 <1>                0.0723
     46 H12        -23.2889   6.8433  13.5805 H              1 <1>                0.0655
     47 H13        -23.6859   6.5031  11.1765 H              1 <1>                0.0655
     48 H15        -23.7920   2.2842  11.7916 H              1 <1>                0.0655
     49 H16        -23.3859   2.6132  14.1871 H              1 <1>                0.0655
     50 ****       -24.1419   8.8506  25.3020 LP             1 <1>                0.0000
     51 ****       -22.5182   8.9138  25.4638 LP             1 <1>                0.0000
     52 ****       -24.2330  12.5786  22.0754 LP             1 <1>                0.0000
     53 ****       -24.4356  12.5442  20.3556 LP             1 <1>                0.0000
     54 ****       -22.7054   9.0450  18.9384 LP             1 <1>                0.0000
     55 ****       -23.9748   5.0771  15.8172 LP             1 <1>                0.0000
     56 ****       -22.5577   4.2685  15.7488 LP             1 <1>                0.0000
     57 ****       -24.9083   4.5045   9.7675 LP             1 <1>                0.0000
     58 ****       -23.9385   3.1911   9.8016 LP             1 <1>                0.0000
     59 ****       -23.3982   5.8322  17.9736 LP             1 <1>                0.0000
     60 ****       -24.7133   5.7865  17.0066 LP             1 <1>                0.0000
@<TRIPOS>BOND
    1    1    2 1     
    2    1    4 1     
    3    1   25 1     
    4    1   26 1     
    5    2   10 1     
    6    2   12 am    
    7    3    4 1     
    8    3    7 1     
    9    4   27 1     
   10    4   28 1     
   11    5   12 am    
   12    5   14 1     
   13    5   29 1     
   14    6   12 2     
   15    7   10 1     
   16    7   30 1     
   17    7   31 1     
   18    8   16 1     
   19    8   15 1     
   20    8   32 1     
   21    9   18 1     
   22    9   19 1     
   23   10   33 1     
   24   10   34 1     
   25   11   22 1     
   26   11   35 1     
   27   13   17 1     
   28   13   36 1     
   29   14   15 1     
   30   14   37 1     
   31   14   38 1     
   32   15   39 1     
   33   15   40 1     
   34   16   17 1     
   35   16   41 1     
   36   16   42 1     
   37   17   18 1     
   38   17   43 1     
   39   18   44 1     
   40   18   45 1     
   41   19   20 ar    
   42   19   24 ar    
   43   20   21 ar    
   44   20   46 1     
   45   21   22 ar    
   46   21   47 1     
   47   22   23 ar    
   48   23   24 ar    
   49   23   48 1     
   50   24   49 1     
   51    3   50 1     
   52    3   51 1     
   53    6   52 1     
   54    6   53 1     
   55    8   54 1     
   56    9   55 1     
   57    9   56 1     
   58   11   57 1     
   59   11   58 1     
   60   13   59 1     
   61   13   60 1     
@<TRIPOS>SUBSTRUCTURE
      1 ****           1
@<TRIPOS>SET
LONE_PAIRS      STATIC     ATOMS    <user>   **** ""
11 50 51 52 53 54 55 56 57 58 59 60
DONOR_HYDROGENS      STATIC     ATOMS    <user>   **** ""
4 29 32 35 36
ATOM$BLUE        STATIC     ATOMS    COLORGROUP SYSTEM
11 50 51 52 53 54 55 56 57 58 59 60
ATOM$RED        STATIC     ATOMS    COLORGROUP SYSTEM
4 29 32 35 36
@<TRIPOS>COMMENT
> <Gold.Version>
5.5

> <Gold.Id.Protein>
unknown|bialko_beta1|pdb

> <Gold.Protein.ActiveResidues>
 ALA86   ASP87   VAL90   VAL94   VAL95   GLY98   ALA99   LEU101  VAL102  CYS114 
 GLU115  TRP117  THR118  SER119  LEU120  ASP121  VAL122  CYS124  VAL125  THR126 
 SER128  SER173  PHE174  ILE177  CYS199  ASP200  PHE201  TYR207  SER215  PHE299 
 TRP303  PHE306  PHE307  ASN310  PHE325  VAL326  ASN329  TRP330  GLY332  TYR333 
 SER336 

> <Gold.Score>
     Score         DG    S(hbond)    S(metal)    S(lipo)     H(rot)  DE(clash)    DE(int)     intcor
     28.56     -30.88       2.78        0.00     224.62       3.97       0.74       1.59       0.16

> <Gold.Chemscore.Fitness>
28.5582

> <Gold.Chemscore.DG>
-30.8812

> <Gold.Chemscore.ZeroCoef>
-5.4800

> <Gold.Chemscore.Hbond>
2.7820

> <Gold.Chemscore.Metal>
0.0000

> <Gold.Chemscore.Lipo>
224.6180

> <Gold.Chemscore.Internal_Hbond>
0.0000

> <Gold.Chemscore.DEClash>
0.7358

> <Gold.Chemscore.DEInternal>
1.5872

> <Gold.Chemscore.Rot>
3.9731

> <Gold.Chemscore.Internal.Correction>
0.1626

> <Gold.Chemscore.Hbonds>
donor molecule, donor type, donor heavy atom, donor atom, acceptor molecule, acceptor atom, score
      L1  H     5    29       P1  2066  0.88
      L1  H     8    32       P1  2066  0.97
      L1  H    13    36       P1  2066  0.93

> <Gold.Chemscore.Hbond.Weighted>
-9.2920

> <Gold.Chemscore.Metal.Weighted>
-0.0000

> <Gold.Chemscore.Lipo.Weighted>
-26.2803

> <Gold.Chemscore.Internal_Hbond.Weighted>
0.0000

> <Gold.Chemscore.DEClash.Weighted>
0.7358

> <Gold.Chemscore.DEInternal.Weighted>
1.5872

> <Gold.Chemscore.Rot.Weighted>
10.1712

> <Gold.Chemscore.Internal.Correction.Weighted>
0.1626

