#       Name:                C:\Users\porto\OneDrive\projekt\beta1\ligandy\2y00 2y00 1
#       Creating user name   student
#       Creation time:       Mon Apr 08 14:05:16 2019


#       File generated by GOLD software.
#

@<TRIPOS>MOLECULE
C:\Users\porto\OneDrive\projekt\beta1\ligandy\2y00 2y00 1
    52    53     1
SMALL
GASTEIGER


@<TRIPOS>ATOM
      1 C1          -0.2513  -1.9606  -1.7971 C.3            1 <1>               -0.0150
      2 N1           0.2957  -0.1766  -0.1471 N.3            1 <1>               -0.3132
      3 O1          -1.0043  -0.9906  -6.5821 O.3            1 <1>               -0.5033
      4 C2          -0.2603  -2.3526  -3.2631 C.ar           1 <1>               -0.0425
      5 O2          -0.2643  -3.4466  -7.2921 O.3            1 <1>               -0.5033
      6 C3           0.1257  -3.6536  -3.6291 C.ar           1 <1>               -0.0549
      7 O3          -0.9353   2.7884   7.6469 O.3            1 <1>               -0.5068
      8 C4           0.1657  -4.0656  -4.9701 C.ar           1 <1>               -0.0163
      9 C5          -0.2283  -3.1636  -5.9611 C.ar           1 <1>                0.1582
     10 C6          -0.6463  -1.8096  -5.5761 C.ar           1 <1>                0.1585
     11 C7          -0.6593  -1.4276  -4.2411 C.ar           1 <1>               -0.0133
     12 C8           0.1597  -0.5016  -1.5711 C.3            1 <1>                0.0001
     13 C9           1.1067   0.9514   0.3219 C.3            1 <1>                0.0051
     14 C10          2.6007   0.7134   0.0739 C.3            1 <1>               -0.0497
     15 C11          0.9057   1.2334   1.8049 C.3            1 <1>               -0.0338
     16 C12         -0.5403   1.5884   2.1439 C.3            1 <1>               -0.0263
     17 C13         -0.6503   1.9434   3.6059 C.ar           1 <1>               -0.0471
     18 C14         -0.9993   3.2394   4.0049 C.ar           1 <1>               -0.0551
     19 C15         -1.1003   3.5264   5.3639 C.ar           1 <1>               -0.0199
     20 C16         -0.8383   2.5334   6.3149 C.ar           1 <1>                0.1169
     21 C17         -0.4873   1.2534   5.9249 C.ar           1 <1>               -0.0199
     22 C18         -0.3963   0.9604   4.5629 C.ar           1 <1>               -0.0551
     23 H11          0.4267  -2.6166  -1.2511 H              1 <1>                0.0325
     24 H12         -1.2403  -2.1286  -1.3711 H              1 <1>                0.0325
     25 HN1         -0.6143   0.0254   0.2409 H              1 <1>                0.1222
     26 HO1         -1.2583  -0.1366  -6.2251 H              1 <1>                0.2923
     27 HO2         -0.5663  -2.6746  -7.7761 H              1 <1>                0.2923
     28 H3           0.4027  -4.3686  -2.8691 H              1 <1>                0.0621
     29 HO3         -0.7203   1.9944   8.1419 H              1 <1>                0.2921
     30 H4           0.4967  -5.0636  -5.2191 H              1 <1>                0.0655
     31 H7          -0.9703  -0.4346  -3.9511 H              1 <1>                0.0658
     32 H81         -0.5803   0.1574  -2.0241 H              1 <1>                0.0427
     33 H82          1.1047  -0.3086  -2.0791 H              1 <1>                0.0427
     34 H9           0.8077   1.8394  -0.2361 H              1 <1>                0.0458
     35 H101         3.1707   1.5704   0.4339 H              1 <1>                0.0245
     36 H102         2.9197  -0.1836   0.6049 H              1 <1>                0.0245
     37 H103         2.7757   0.5844  -0.9941 H              1 <1>                0.0245
     38 H111         1.5607   2.0494   2.1109 H              1 <1>                0.0283
     39 H112         1.2097   0.3614   2.3839 H              1 <1>                0.0283
     40 H121        -1.1833   0.7354   1.9279 H              1 <1>                0.0314
     41 H122        -0.8573   2.4384   1.5389 H              1 <1>                0.0314
     42 H14         -1.1863   4.0014   3.2629 H              1 <1>                0.0621
     43 H15         -1.3813   4.5174   5.6869 H              1 <1>                0.0654
     44 H17         -0.2883   0.4974   6.6699 H              1 <1>                0.0654
     45 H18         -0.1263  -0.0386   4.2529 H              1 <1>                0.0621
     46 ****         0.7812  -1.0001   0.1465 LP             1 <1>                0.0000
     47 ****        -1.7772  -1.3883  -7.0765 LP             1 <1>                0.0000
     48 ****        -0.2328  -0.8742  -7.2076 LP             1 <1>                0.0000
     49 ****        -0.8922  -4.2079  -7.4539 LP             1 <1>                0.0000
     50 ****         0.6519  -3.6981  -7.6041 LP             1 <1>                0.0000
     51 ****        -1.8687   3.0740   7.8644 LP             1 <1>                0.0000
     52 ****        -0.2974   3.5179   7.8938 LP             1 <1>                0.0000
@<TRIPOS>BOND
    1    1    4 1     
    2    1   12 1     
    3    1   23 1     
    4    1   24 1     
    5    2   12 1     
    6    2   13 1     
    7    2   25 1     
    8    3   10 1     
    9    3   26 1     
   10    4    6 ar    
   11    4   11 ar    
   12    5    9 1     
   13    5   27 1     
   14    6    8 ar    
   15    6   28 1     
   16    7   20 1     
   17    7   29 1     
   18    8    9 ar    
   19    8   30 1     
   20    9   10 ar    
   21   10   11 ar    
   22   11   31 1     
   23   12   32 1     
   24   12   33 1     
   25   13   14 1     
   26   13   15 1     
   27   13   34 1     
   28   14   35 1     
   29   14   36 1     
   30   14   37 1     
   31   15   16 1     
   32   15   38 1     
   33   15   39 1     
   34   16   17 1     
   35   16   40 1     
   36   16   41 1     
   37   17   18 ar    
   38   17   22 ar    
   39   18   19 ar    
   40   18   42 1     
   41   19   20 ar    
   42   19   43 1     
   43   20   21 ar    
   44   21   22 ar    
   45   21   44 1     
   46   22   45 1     
   47    2   46 1     
   48    3   47 1     
   49    3   48 1     
   50    5   49 1     
   51    5   50 1     
   52    7   51 1     
   53    7   52 1     
@<TRIPOS>SUBSTRUCTURE
      1 ****           1
@<TRIPOS>SET
LONE_PAIRS      STATIC     ATOMS    <user>   **** ""
7 46 47 48 49 50 51 52
DONOR_HYDROGENS      STATIC     ATOMS    <user>   **** ""
4 25 26 27 29
ATOM$BLUE        STATIC     ATOMS    COLORGROUP SYSTEM
7 46 47 48 49 50 51 52
ATOM$RED        STATIC     ATOMS    COLORGROUP SYSTEM
4 25 26 27 29
