#       Name:                C:\Users\porto\OneDrive\projekt\beta1\ligandy\2y00 2y00 1
#       Creating user name   student
#       Creation time:       Mon Apr 08 14:08:53 2019


#       File generated by GOLD software.
#

@<TRIPOS>MOLECULE
C:\Users\porto\OneDrive\projekt\beta1\ligandy\2y00 2y00 1|2y00|mol2|1|dock51
    52    53     1
SMALL
GASTEIGER


@<TRIPOS>ATOM
      1 C1         -23.3089   5.7995  16.1725 C.3            1 <1>               -0.0150
      2 N1         -22.2737   7.6649  17.4581 N.3            1 <1>               -0.3132
      3 O1         -23.8664   5.5167  11.2721 O.3            1 <1>               -0.5033
      4 C2         -23.3175   5.0337  14.8624 C.ar           1 <1>               -0.0425
      5 O2         -23.3218   2.9115  11.2671 O.3            1 <1>               -0.5033
      6 C3         -23.0352   3.6568  14.8692 C.ar           1 <1>               -0.0549
      7 O3         -25.8187  14.5187  21.3964 O.3            1 <1>               -0.5068
      8 C4         -22.9996   2.9013  13.6870 C.ar           1 <1>               -0.0163
      9 C5         -23.2925   3.5346  12.4770 C.ar           1 <1>                0.1582
     10 C6         -23.6026   4.9699  12.4731 C.ar           1 <1>                0.1585
     11 C7         -23.6137   5.6929  13.6586 C.ar           1 <1>               -0.0133
     12 C8         -22.3839   7.0211  16.1446 C.3            1 <1>                0.0001
     13 C9         -21.7482   9.0243  17.6192 C.3            1 <1>                0.0051
     14 C10        -20.2951   9.0130  18.1078 C.3            1 <1>               -0.0497
     15 C11        -22.5749   9.8543  18.5923 C.3            1 <1>               -0.0338
     16 C12        -22.0178  11.2634  18.7819 C.3            1 <1>               -0.0263
     17 C13        -23.0512  12.1362  19.4497 C.ar           1 <1>               -0.0471
     18 C14        -24.2123  12.5219  18.7688 C.ar           1 <1>               -0.0551
     19 C15        -25.1479  13.3202  19.4221 C.ar           1 <1>               -0.0199
     20 C16        -24.9178  13.7433  20.7363 C.ar           1 <1>                0.1169
     21 C17        -23.7690  13.3694  21.4104 C.ar           1 <1>               -0.0199
     22 C18        -22.8349  12.5599  20.7613 C.ar           1 <1>               -0.0551
     23 H11        -23.0044   5.1330  16.9794 H              1 <1>                0.0325
     24 H12        -24.3231   6.1184  16.4124 H              1 <1>                0.0325
     25 HN1        -23.1885   7.7271  17.8808 H              1 <1>                0.1222
     26 HO1        -23.6019   4.9086  10.5782 H              1 <1>                0.2923
     27 HO2        -24.0803   2.3246  11.2269 H              1 <1>                0.2923
     28 H3         -22.8376   3.1507  15.8021 H              1 <1>                0.0621
     29 HO3        -26.6937  14.1317  21.3172 H              1 <1>                0.2921
     30 H4         -22.7490   1.8509  13.7244 H              1 <1>                0.0655
     31 H7         -23.8457   6.7479  13.6630 H              1 <1>                0.0658
     32 H81        -22.7575   7.7418  15.4180 H              1 <1>                0.0427
     33 H82        -21.3934   6.7178  15.8051 H              1 <1>                0.0427
     34 H9         -21.7748   9.5159  16.6461 H              1 <1>                0.0458
     35 H101       -19.9390  10.0380  18.2153 H              1 <1>                0.0245
     36 H102       -20.2388   8.5062  19.0713 H              1 <1>                0.0245
     37 H103       -19.6726   8.4870  17.3842 H              1 <1>                0.0245
     38 H111       -22.6160   9.3479  19.5568 H              1 <1>                0.0283
     39 H112       -23.6022   9.9164  18.2335 H              1 <1>                0.0283
     40 H121       -21.7594  11.6849  17.8106 H              1 <1>                0.0314
     41 H122       -21.1228  11.2199  19.4032 H              1 <1>                0.0314
     42 H14        -24.3736  12.2007  17.7505 H              1 <1>                0.0621
     43 H15        -26.0542  13.6148  18.9149 H              1 <1>                0.0654
     44 H17        -23.6050  13.7032  22.4242 H              1 <1>                0.0654
     45 H18        -21.9380  12.2619  21.2845 H              1 <1>                0.0621
     46 ****       -21.5878   7.0596  17.8621 LP             1 <1>                0.0000
     47 ****       -23.3581   6.3726  11.1768 LP             1 <1>                0.0000
     48 ****       -24.8464   5.7010  11.1980 LP             1 <1>                0.0000
     49 ****       -22.4831   2.3808  11.1453 LP             1 <1>                0.0000
     50 ****       -23.3914   3.5960  10.5415 LP             1 <1>                0.0000
     51 ****       -25.8230  15.4363  20.9988 LP             1 <1>                0.0000
     52 ****       -25.5654  14.5751  22.3621 LP             1 <1>                0.0000
@<TRIPOS>BOND
    1    1    4 1     
    2    1   12 1     
    3    1   23 1     
    4    1   24 1     
    5    2   12 1     
    6    2   13 1     
    7    2   25 1     
    8    3   10 1     
    9    3   26 1     
   10    4    6 ar    
   11    4   11 ar    
   12    5    9 1     
   13    5   27 1     
   14    6    8 ar    
   15    6   28 1     
   16    7   20 1     
   17    7   29 1     
   18    8    9 ar    
   19    8   30 1     
   20    9   10 ar    
   21   10   11 ar    
   22   11   31 1     
   23   12   32 1     
   24   12   33 1     
   25   13   14 1     
   26   13   15 1     
   27   13   34 1     
   28   14   35 1     
   29   14   36 1     
   30   14   37 1     
   31   15   16 1     
   32   15   38 1     
   33   15   39 1     
   34   16   17 1     
   35   16   40 1     
   36   16   41 1     
   37   17   18 ar    
   38   17   22 ar    
   39   18   19 ar    
   40   18   42 1     
   41   19   20 ar    
   42   19   43 1     
   43   20   21 ar    
   44   21   22 ar    
   45   21   44 1     
   46   22   45 1     
   47    2   46 1     
   48    3   47 1     
   49    3   48 1     
   50    5   49 1     
   51    5   50 1     
   52    7   51 1     
   53    7   52 1     
@<TRIPOS>SUBSTRUCTURE
      1 ****           1
@<TRIPOS>SET
LONE_PAIRS      STATIC     ATOMS    <user>   **** ""
7 46 47 48 49 50 51 52
DONOR_HYDROGENS      STATIC     ATOMS    <user>   **** ""
4 25 26 27 29
ATOM$BLUE        STATIC     ATOMS    COLORGROUP SYSTEM
7 46 47 48 49 50 51 52
ATOM$RED        STATIC     ATOMS    COLORGROUP SYSTEM
4 25 26 27 29
@<TRIPOS>COMMENT
> <Gold.Version>
5.5

> <Gold.Id.Protein>
unknown|bialko_beta1|pdb

> <Gold.Protein.ActiveResidues>
 ALA86   ASP87   VAL90   VAL94   VAL95   GLY98   ALA99   LEU101  VAL102  CYS114 
 GLU115  TRP117  THR118  SER119  LEU120  ASP121  VAL122  CYS124  VAL125  THR126 
 SER128  SER173  PHE174  ILE177  CYS199  ASP200  PHE201  TYR207  SER215  PHE299 
 TRP303  PHE306  PHE307  ASN310  PHE325  VAL326  ASN329  TRP330  GLY332  TYR333 
 SER336 

> <Gold.Score>
     Score     S(PLP)   S(hbond)     S(cho)   S(metal)  DE(clash)   DE(tors)     intcor
     71.15     -72.79       0.00       0.00       0.00       0.00       0.85       0.06

> <Gold.PLP.Fitness>
71.1497

> <Gold.PLP.PLP>
-72.7949

> <Gold.PLP.part.hbond>
-2.0795

> <Gold.PLP.part.metal>
0.0000

> <Gold.PLP.part.buried>
-7.5326

> <Gold.PLP.part.nonpolar>
-64.0207

> <Gold.PLP.part.repulsive>
0.0000

> <Gold.PLP.ligand.clash>
0.0000

> <Gold.PLP.ligand.torsion>
0.8548

> <Gold.PLP.Chemscore.Hbond>
0.0000

> <Gold.PLP.Chemscore.CHOScore>
0.0000

> <Gold.PLP.Chemscore.Metal>
0.0000

> <Gold.PLP.Chemscore.Internal.Correction>
0.0643

