#       Name:                C:\Users\porto\OneDrive\projekt\beta2\ligandy\L_3ny8.pdb L_3ny8.pdb 1
#       Creating user name   student
#       Creation time:       Mon Apr 08 15:41:45 2019


#       File generated by GOLD software.
#

@<TRIPOS>MOLECULE
C:\Users\porto\OneDrive\projekt\beta2\ligandy\L_3ny8.pdb L_3ny8.pdb 1
    52    53     1
SMALL
GASTEIGER


@<TRIPOS>ATOM
      1 C1           4.7049   0.2641  -0.2316 C.3            1 <1>               -0.0268
      2 N1          -3.4331  -1.2919   0.6484 N.3            1 <1>               -0.3087
      3 O1           0.0899   1.3361   0.8684 O.3            1 <1>               -0.4891
      4 C2           3.9079  -0.9339   0.2104 C.3            1 <1>               -0.0449
      5 O2          -3.5721   1.4061   0.7084 O.3            1 <1>               -0.3869
      6 C3           2.6929  -0.4249   0.9554 C.3            1 <1>               -0.0237
      7 C4           2.4339   0.9301   0.2504 C.ar           1 <1>               -0.0023
      8 C5           3.5979   1.3151  -0.4306 C.ar           1 <1>               -0.0378
      9 C6           3.6009   2.4831  -1.1836 C.ar           1 <1>               -0.0468
     10 C7           4.8549   2.8851  -1.9476 C.3            1 <1>               -0.0394
     11 C8           2.4669   3.2841  -1.2566 C.ar           1 <1>               -0.0551
     12 C9           1.3019   2.9051  -0.5916 C.ar           1 <1>               -0.0194
     13 C10          1.2739   1.7151   0.1504 C.ar           1 <1>                0.1241
     14 C11         -1.2061   1.8231   0.5014 C.3            1 <1>                0.1169
     15 C12         -2.3101   0.8591   1.0174 C.3            1 <1>                0.1041
     16 C13         -2.1831  -0.5729   0.4154 C.3            1 <1>                0.0342
     17 C14         -1.9441  -0.5169  -1.0876 C.3            1 <1>               -0.0472
     18 C15         -3.2841  -2.7349   0.6894 C.3            1 <1>                0.0023
     19 C16         -4.1911  -3.2939   1.7754 C.3            1 <1>               -0.0499
     20 C17         -3.7181  -3.3359  -0.6436 C.3            1 <1>               -0.0499
     21 H11          5.1709   0.0491  -1.1936 H              1 <1>                0.0313
     22 H12          5.3569   0.5811   0.5824 H              1 <1>                0.0313
     23 HN1         -3.8251  -1.0079   1.5344 H              1 <1>                0.1225
     24 H21          4.5129  -1.5459   0.8794 H              1 <1>                0.0272
     25 H22          3.5869  -1.4989  -0.6646 H              1 <1>                0.0272
     26 HO2         -4.2621   0.8181   1.0234 H              1 <1>                0.2100
     27 H31          2.9619  -0.2419   1.9954 H              1 <1>                0.0314
     28 H32          1.8519  -1.0929   0.7674 H              1 <1>                0.0314
     29 H71          4.6739   3.8211  -2.4766 H              1 <1>                0.0278
     30 H72          5.6799   3.0171  -1.2486 H              1 <1>                0.0278
     31 H73          5.1089   2.1051  -2.6656 H              1 <1>                0.0278
     32 H8           2.4889   4.2001  -1.8286 H              1 <1>                0.0621
     33 H9           0.4209   3.5281  -0.6476 H              1 <1>                0.0654
     34 H111        -1.2711   1.9011  -0.5836 H              1 <1>                0.0723
     35 H112        -1.3581   2.8131   0.9324 H              1 <1>                0.0723
     36 H12         -2.2231   0.7851   2.1014 H              1 <1>                0.0643
     37 H13         -1.3611  -1.1019   0.8974 H              1 <1>                0.0484
     38 H141        -1.0151   0.0161  -1.2886 H              1 <1>                0.0245
     39 H142        -1.8741  -1.5299  -1.4826 H              1 <1>                0.0245
     40 H143        -2.7721   0.0041  -1.5686 H              1 <1>                0.0245
     41 H15         -2.2471  -2.9979   0.8974 H              1 <1>                0.0455
     42 H161        -4.0861  -4.3779   1.8144 H              1 <1>                0.0245
     43 H162        -3.9111  -2.8679   2.7384 H              1 <1>                0.0245
     44 H163        -5.2271  -3.0369   1.5524 H              1 <1>                0.0245
     45 H171        -3.6041  -4.4199  -0.6086 H              1 <1>                0.0245
     46 H172        -4.7621  -3.0869  -0.8326 H              1 <1>                0.0245
     47 H173        -3.0981  -2.9319  -1.4436 H              1 <1>                0.0245
     48 ****        -4.0241  -1.0631  -0.1252 LP             1 <1>                0.0000
     49 ****         0.2360   1.6154   1.8174 LP             1 <1>                0.0000
     50 ****         0.0390   0.3386   0.8186 LP             1 <1>                0.0000
     51 ****        -3.6543   1.5156  -0.2822 LP             1 <1>                0.0000
     52 ****        -3.6663   2.2977   1.1513 LP             1 <1>                0.0000
@<TRIPOS>BOND
    1    1    4 1     
    2    1    8 1     
    3    1   21 1     
    4    1   22 1     
    5    2   16 1     
    6    2   18 1     
    7    2   23 1     
    8    3   13 1     
    9    3   14 1     
   10    4    6 1     
   11    4   24 1     
   12    4   25 1     
   13    5   15 1     
   14    5   26 1     
   15    6    7 1     
   16    6   27 1     
   17    6   28 1     
   18    7    8 ar    
   19    7   13 ar    
   20    8    9 ar    
   21    9   10 1     
   22    9   11 ar    
   23   10   29 1     
   24   10   30 1     
   25   10   31 1     
   26   11   12 ar    
   27   11   32 1     
   28   12   13 ar    
   29   12   33 1     
   30   14   15 1     
   31   14   34 1     
   32   14   35 1     
   33   15   16 1     
   34   15   36 1     
   35   16   17 1     
   36   16   37 1     
   37   17   38 1     
   38   17   39 1     
   39   17   40 1     
   40   18   19 1     
   41   18   20 1     
   42   18   41 1     
   43   19   42 1     
   44   19   43 1     
   45   19   44 1     
   46   20   45 1     
   47   20   46 1     
   48   20   47 1     
   49    2   48 1     
   50    3   49 1     
   51    3   50 1     
   52    5   51 1     
   53    5   52 1     
@<TRIPOS>SUBSTRUCTURE
      1 ****           1
@<TRIPOS>SET
LONE_PAIRS      STATIC     ATOMS    <user>   **** ""
5 48 49 50 51 52
DONOR_HYDROGENS      STATIC     ATOMS    <user>   **** ""
2 23 26
ATOM$BLUE        STATIC     ATOMS    COLORGROUP SYSTEM
5 48 49 50 51 52
ATOM$RED        STATIC     ATOMS    COLORGROUP SYSTEM
2 23 26
