#       Name:                C:\Users\porto\OneDrive\projekt\beta2\ligandy\L_3ny8.pdb L_3ny8.pdb 1
#       Creating user name   student
#       Creation time:       Mon Apr 08 15:42:05 2019


#       File generated by GOLD software.
#

@<TRIPOS>MOLECULE
C:\Users\porto\OneDrive\projekt\beta2\ligandy\L_3ny8.pdb L_3ny8.pdb 1|3ny8|mol2|1|dock3
    52    53     1
SMALL
GASTEIGER


@<TRIPOS>ATOM
      1 C1         -26.4905  10.8294   5.8109 C.3            1 <1>               -0.0268
      2 N1         -34.4334   6.5078   8.0271 N.3            1 <1>               -0.3087
      3 O1         -30.3580   8.3532   7.4133 O.3            1 <1>               -0.4891
      4 C2         -26.3204   9.3371   5.7125 C.3            1 <1>               -0.0449
      5 O2         -31.9820   6.4327   9.2143 O.3            1 <1>               -0.3869
      6 C3         -27.3297   8.6998   6.6429 C.3            1 <1>               -0.0237
      7 C4         -28.4876   9.7285   6.6063 C.ar           1 <1>               -0.0023
      8 C5         -27.9929  10.9490   6.1243 C.ar           1 <1>               -0.0378
      9 C6         -28.8573  12.0239   5.9549 C.ar           1 <1>               -0.0468
     10 C7         -28.3262  13.3395   5.4027 C.3            1 <1>               -0.0394
     11 C8         -30.2056  11.9082   6.2737 C.ar           1 <1>               -0.0551
     12 C9         -30.7091  10.6965   6.7440 C.ar           1 <1>               -0.0194
     13 C10        -29.8553   9.5939   6.8947 C.ar           1 <1>                0.1241
     14 C11        -31.7597   8.0605   7.4491 C.3            1 <1>                0.1169
     15 C12        -31.9893   6.5669   7.8109 C.3            1 <1>                0.1041
     16 C13        -33.3204   6.0071   7.2245 C.3            1 <1>                0.0342
     17 C14        -33.5263   6.4730   5.7893 C.3            1 <1>               -0.0472
     18 C15        -35.0580   5.4991   8.8628 C.3            1 <1>                0.0023
     19 C16        -36.3013   6.0932   9.5076 C.3            1 <1>               -0.0499
     20 C17        -35.4914   4.3149   8.0047 C.3            1 <1>               -0.0499
     21 H11        -26.2916  11.2775   4.8370 H              1 <1>                0.0313
     22 H12        -25.9173  11.2003   6.6607 H              1 <1>                0.0313
     23 HN1        -34.1046   7.2399   8.6396 H              1 <1>                0.1225
     24 H21        -25.3136   9.0646   6.0290 H              1 <1>                0.0272
     25 H22        -26.5165   9.0163   4.6895 H              1 <1>                0.0272
     26 HO2        -32.6162   7.0424   9.5978 H              1 <1>                0.2100
     27 H31        -26.9147   8.6633   7.6498 H              1 <1>                0.0314
     28 H32        -27.6722   7.7596   6.2096 H              1 <1>                0.0314
     29 H71        -29.1400  14.0623   5.3397 H              1 <1>                0.0278
     30 H72        -27.5498  13.7240   6.0630 H              1 <1>                0.0278
     31 H73        -27.9088  13.1747   4.4092 H              1 <1>                0.0278
     32 H8         -30.8627  12.7575   6.1569 H              1 <1>                0.0621
     33 H9         -31.7568  10.6069   6.9926 H              1 <1>                0.0654
     34 H111       -32.1995   8.2690   6.4741 H              1 <1>                0.0723
     35 H112       -32.2444   8.6930   8.1934 H              1 <1>                0.0723
     36 H12        -31.1628   5.9836   7.4051 H              1 <1>                0.0643
     37 H13        -33.3062   4.9178   7.2573 H              1 <1>                0.0484
     38 H141       -32.7069   6.1117   5.1684 H              1 <1>                0.0245
     39 H142       -34.4692   6.0794   5.4111 H              1 <1>                0.0245
     40 H143       -33.5498   7.5625   5.7603 H              1 <1>                0.0245
     41 H15        -34.3610   5.1672   9.6322 H              1 <1>                0.0455
     42 H161       -36.7777   5.3429  10.1381 H              1 <1>                0.0245
     43 H162       -36.0205   6.9524  10.1161 H              1 <1>                0.0245
     44 H163       -36.9977   6.4107   8.7310 H              1 <1>                0.0245
     45 H171       -35.9596   3.5594   8.6365 H              1 <1>                0.0245
     46 H172       -36.2048   4.6518   7.2529 H              1 <1>                0.0245
     47 H173       -34.6199   3.8853   7.5112 H              1 <1>                0.0245
     48 ****       -35.1147   6.8319   7.3707 LP             1 <1>                0.0000
     49 ****       -30.0347   8.2924   8.3576 LP             1 <1>                0.0000
     50 ****       -29.9343   7.6294   6.8687 LP             1 <1>                0.0000
     51 ****       -31.0680   6.6389   9.5639 LP             1 <1>                0.0000
     52 ****       -32.2295   5.4957   9.4606 LP             1 <1>                0.0000
@<TRIPOS>BOND
    1    1    4 1     
    2    1    8 1     
    3    1   21 1     
    4    1   22 1     
    5    2   16 1     
    6    2   18 1     
    7    2   23 1     
    8    3   13 1     
    9    3   14 1     
   10    4    6 1     
   11    4   24 1     
   12    4   25 1     
   13    5   15 1     
   14    5   26 1     
   15    6    7 1     
   16    6   27 1     
   17    6   28 1     
   18    7    8 ar    
   19    7   13 ar    
   20    8    9 ar    
   21    9   10 1     
   22    9   11 ar    
   23   10   29 1     
   24   10   30 1     
   25   10   31 1     
   26   11   12 ar    
   27   11   32 1     
   28   12   13 ar    
   29   12   33 1     
   30   14   15 1     
   31   14   34 1     
   32   14   35 1     
   33   15   16 1     
   34   15   36 1     
   35   16   17 1     
   36   16   37 1     
   37   17   38 1     
   38   17   39 1     
   39   17   40 1     
   40   18   19 1     
   41   18   20 1     
   42   18   41 1     
   43   19   42 1     
   44   19   43 1     
   45   19   44 1     
   46   20   45 1     
   47   20   46 1     
   48   20   47 1     
   49    2   48 1     
   50    3   49 1     
   51    3   50 1     
   52    5   51 1     
   53    5   52 1     
@<TRIPOS>SUBSTRUCTURE
      1 ****           1
@<TRIPOS>SET
LONE_PAIRS      STATIC     ATOMS    <user>   **** ""
5 48 49 50 51 52
DONOR_HYDROGENS      STATIC     ATOMS    <user>   **** ""
2 23 26
ATOM$BLUE        STATIC     ATOMS    COLORGROUP SYSTEM
5 48 49 50 51 52
ATOM$RED        STATIC     ATOMS    COLORGROUP SYSTEM
2 23 26
@<TRIPOS>COMMENT
> <Gold.Version>
5.5

> <Gold.Id.Protein>
unknown|dok_beta2|pdb

> <Gold.Protein.RotatedTorsions>
[ 4175 4166 4165 4163 ] final -140.68 input -179.98 | X-H torsion
[ 1294 1290 1288 1285 ] final   30.73 input -179.99 | X-H torsion
[ 4033 4024 4023 4021 ] final   -7.46 input  179.98 | X-H torsion
[ 1412 1408 1406 1403 ] final  146.08 input -179.99 | X-H torsion
[ 2830 2825 2824 2821 ] final  -13.99 input -179.98 | X-H torsion
[ 2723 2714 2713 2711 ] final   76.13 input -179.98 | X-H torsion
[ 2773 2768 2767 2764 ] final   29.37 input  180.00 | X-H torsion

> <Gold.Protein.ActiveResidues>
 TRP109  THR110  ASP113  VAL114  VAL117  THR118  PHE193  TYR199  SER203  SER207 
 PHE208  TRP286  PHE289  PHE290  ASN293  TYR308  ASN312  TYR316 

> <Gold.Protein.RotatedAtoms>
  -35.4319    4.5570    1.5853 H   0  0  0  0  0  0  0  0  0  0  0  0  # atno 1294 bound_to 1290
  -27.6842   14.5252    1.7348 H   0  0  0  0  0  0  0  0  0  0  0  0  # atno 1412 bound_to 1408
  -26.8170    7.0998    1.4425 H   0  0  0  0  0  0  0  0  0  0  0  0  # atno 2723 bound_to 2714
  -23.6692   10.8153    2.6740 H   0  0  0  0  0  0  0  0  0  0  0  0  # atno 2773 bound_to 2768
  -23.6190   14.0392    2.1967 H   0  0  0  0  0  0  0  0  0  0  0  0  # atno 2830 bound_to 2825
  -29.0739    5.6159   10.6088 H   0  0  0  0  0  0  0  0  0  0  0  0  # atno 4033 bound_to 4024
  -36.0572    9.0578    7.9160 H   0  0  0  0  0  0  0  0  0  0  0  0  # atno 4175 bound_to 4166
  -37.4092    9.0965    7.0607 LP  0  0  0  0  0  0  0  0  0  0  0  0  # atno 4597 bound_to 4166
  -37.3212    8.2288    8.4412 LP  0  0  0  0  0  0  0  0  0  0  0  0  # atno 4598 bound_to 4166
  -34.2768    4.3560    2.6746 LP  0  0  0  0  0  0  0  0  0  0  0  0  # atno 4603 bound_to 1290
  -34.2380    3.5422    1.2594 LP  0  0  0  0  0  0  0  0  0  0  0  0  # atno 4604 bound_to 1290
  -27.7295    5.9460   11.4126 LP  0  0  0  0  0  0  0  0  0  0  0  0  # atno 4607 bound_to 4024
  -28.8947    7.0767   11.2383 LP  0  0  0  0  0  0  0  0  0  0  0  0  # atno 4608 bound_to 4024
  -28.1094   14.9704    3.2120 LP  0  0  0  0  0  0  0  0  0  0  0  0  # atno 4611 bound_to 1408
  -26.5568   15.0899    2.7202 LP  0  0  0  0  0  0  0  0  0  0  0  0  # atno 4612 bound_to 1408
  -25.1082   13.4773    2.3598 LP  0  0  0  0  0  0  0  0  0  0  0  0  # atno 4613 bound_to 2825
  -23.8580   12.7595    3.1269 LP  0  0  0  0  0  0  0  0  0  0  0  0  # atno 4614 bound_to 2825

> <Gold.Score>
     Score     S(PLP)   S(hbond)     S(cho)   S(metal)  DE(clash)   DE(tors)     intcor
     67.50     -64.23       2.00       0.00       0.00       0.00       1.48       0.22

> <Gold.PLP.Fitness>
67.5006

> <Gold.PLP.PLP>
-64.2323

> <Gold.PLP.part.hbond>
-2.0000

> <Gold.PLP.part.metal>
0.0000

> <Gold.PLP.part.buried>
-6.3628

> <Gold.PLP.part.nonpolar>
-56.9529

> <Gold.PLP.part.repulsive>
0.0176

> <Gold.PLP.ligand.clash>
0.0000

> <Gold.PLP.ligand.torsion>
1.4762

> <Gold.PLP.Chemscore.Hbond>
2.0000

> <Gold.PLP.Chemscore.CHOScore>
0.0000

> <Gold.PLP.Chemscore.Metal>
0.0000

> <Gold.Chemscore.Hbonds>
donor molecule, donor type, donor heavy atom, donor atom, acceptor molecule, acceptor atom, score
      L1  H     2    23       P1  4098  1.00
      L1  H     5    26       P1  4098  1.00

> <Gold.PLP.Chemscore.Internal.Correction>
0.2207

