#       Name:                C:\Users\porto\OneDrive\projekt\beta1\ligandy\L_3zpq.pdb L_3zpq.pdb 1
#       Creating user name   student
#       Creation time:       Mon Apr 08 14:41:55 2019


#       File generated by GOLD software.
#

@<TRIPOS>MOLECULE
C:\Users\porto\OneDrive\projekt\beta1\ligandy\L_3zpq.pdb L_3zpq.pdb 1|3zpq|mol2|1|dock1
    31    33     1
SMALL
GASTEIGER


@<TRIPOS>ATOM
      1 C1         -22.9451   2.5143  12.1588 C.ar           1 <1>               -0.0580
      2 C2         -23.0629   2.8764  13.4867 C.ar           1 <1>               -0.0400
      3 C3         -23.3560   4.1981  13.8094 C.ar           1 <1>                0.0390
      4 C4         -23.5010   5.1009  12.8296 C.ar           1 <1>                0.0207
      5 C5         -23.7578   6.4131  12.8556 C.ar           1 <1>               -0.0349
      6 C6         -23.8063   6.8614  11.6011 C.ar           1 <1>                0.0028
      7 N7         -23.5795   5.8272  10.7931 N.pl3          1 <1>               -0.3606
      8 C8         -23.3857   4.7462  11.5429 C.ar           1 <1>                0.0482
      9 C9         -23.1135   3.4923  11.1941 C.ar           1 <1>               -0.0377
     10 N10        -23.4213   4.5471  15.1095 N.pl3          1 <1>               -0.3270
     11 C11        -22.6060   5.6881  15.5402 C.3            1 <1>                0.0248
     12 C12        -23.3808   6.5678  16.4703 C.3            1 <1>                0.0117
     13 N13        -23.8518   5.8137  17.6455 N.3            1 <1>               -0.3130
     14 C14        -24.6681   4.7006  17.1947 C.3            1 <1>                0.0117
     15 C15        -23.8968   3.8123  16.2746 C.3            1 <1>                0.0248
     16 H1         -22.7270   1.4902  11.8954 H              1 <1>                0.0619
     17 H2         -22.9278   2.1372  14.2618 H              1 <1>                0.0636
     18 H5         -23.8861   6.9200  13.8012 H              1 <1>                0.0639
     19 H6         -24.0037   7.9050  11.4076 H              1 <1>                0.0807
     20 HN7        -23.5786   5.9593   9.7921 H              1 <1>                0.1653
     21 H9         -23.0244   3.2401  10.1474 H              1 <1>                0.0638
     22 H111       -22.2408   6.2200  14.6621 H              1 <1>                0.0476
     23 H112       -21.6822   5.3157  15.9822 H              1 <1>                0.0476
     24 H121       -24.2289   6.9992  15.9389 H              1 <1>                0.0439
     25 H122       -22.7556   7.4044  16.7826 H              1 <1>                0.0439
     26 HN13       -24.4016   6.4188  18.2388 H              1 <1>                0.1220
     27 H141       -25.5475   5.0820  16.6755 H              1 <1>                0.0439
     28 H142       -25.0034   4.1239  18.0570 H              1 <1>                0.0439
     29 H151       -23.0561   3.3765  16.8137 H              1 <1>                0.0476
     30 H152       -24.5687   3.0742  15.8375 H              1 <1>                0.0476
     31 ****       -23.0679   5.4585  18.1547 LP             1 <1>                0.0000
@<TRIPOS>BOND
    1    1    2 ar    
    2    1    9 ar    
    3    1   16 1     
    4    2    3 ar    
    5    2   17 1     
    6    3    4 ar    
    7    3   10 1     
    8    4    5 ar    
    9    4    8 ar    
   10    5    6 ar    
   11    5   18 1     
   12    6    7 ar    
   13    6   19 1     
   14    7    8 ar    
   15    7   20 1     
   16    8    9 ar    
   17    9   21 1     
   18   11   10 1     
   19   10   15 1     
   20   11   12 1     
   21   11   22 1     
   22   11   23 1     
   23   12   13 1     
   24   12   24 1     
   25   12   25 1     
   26   13   14 1     
   27   13   26 1     
   28   14   15 1     
   29   14   27 1     
   30   14   28 1     
   31   15   29 1     
   32   15   30 1     
   33   13   31 1     
@<TRIPOS>SUBSTRUCTURE
      1 ****           1
@<TRIPOS>SET
LONE_PAIRS      STATIC     ATOMS    <user>   **** ""
1 31
DONOR_HYDROGENS      STATIC     ATOMS    <user>   **** ""
2 20 26
ATOM$BLUE        STATIC     ATOMS    COLORGROUP SYSTEM
1 31
ATOM$RED        STATIC     ATOMS    COLORGROUP SYSTEM
2 20 26
@<TRIPOS>COMMENT
> <Gold.Version>
5.5

> <Gold.Id.Protein>
unknown|bialko_beta1|pdb

> <Gold.Protein.ActiveResidues>
 ALA86   ASP87   VAL90   VAL94   VAL95   GLY98   ALA99   LEU101  VAL102  CYS114 
 GLU115  TRP117  THR118  SER119  LEU120  ASP121  VAL122  CYS124  VAL125  THR126 
 SER128  SER173  PHE174  ILE177  CYS199  ASP200  PHE201  TYR207  SER215  PHE299 
 TRP303  PHE306  PHE307  ASN310  PHE325  VAL326  ASN329  TRP330  GLY332  TYR333 
 SER336 

> <Gold.Score>
     Score     S(PLP)   S(hbond)     S(cho)   S(metal)  DE(clash)   DE(tors)     intcor
     56.26     -55.23       1.00       0.00       0.00       0.00       1.84       1.72

> <Gold.PLP.Fitness>
56.2567

> <Gold.PLP.PLP>
-55.2255

> <Gold.PLP.part.hbond>
-3.5818

> <Gold.PLP.part.metal>
0.0000

> <Gold.PLP.part.buried>
-3.1325

> <Gold.PLP.part.nonpolar>
-48.9803

> <Gold.PLP.part.repulsive>
0.0000

> <Gold.PLP.ligand.clash>
0.0000

> <Gold.PLP.ligand.torsion>
1.8422

> <Gold.PLP.Chemscore.Hbond>
1.0000

> <Gold.PLP.Chemscore.CHOScore>
0.0000

> <Gold.PLP.Chemscore.Metal>
0.0000

> <Gold.Chemscore.Hbonds>
donor molecule, donor type, donor heavy atom, donor atom, acceptor molecule, acceptor atom, score
      L1  H    13    26       P1  2066  1.00

> <Gold.PLP.Chemscore.Internal.Correction>
1.7155

