#       Name:                C:\Users\porto\OneDrive\projekt\beta1\ligandy\2y00 2y00 1
#       Creating user name   mateusz
#       Creation time:       Wed Apr  3 10:14:41 2019


#       File generated by GOLD software.
#

@<TRIPOS>MOLECULE
C:\Users\porto\OneDrive\projekt\beta1\ligandy\2y00 2y00 1|2y00|mol2|1|dock32
    52    53     1
SMALL
GASTEIGER


@<TRIPOS>ATOM
      1 C1         -23.3513  11.8220  18.9666 C.3            1 <1>               -0.0150
      2 N1         -23.7179   9.4617  18.2603 N.3            1 <1>               -0.3132
      3 O1         -26.4345  14.9295  16.6771 O.3            1 <1>               -0.5033
      4 C2         -24.5082  12.8040  18.9567 C.ar           1 <1>               -0.0425
      5 O2         -27.7026  15.4920  18.9485 O.3            1 <1>               -0.5033
      6 C3         -25.1684  13.1006  20.1615 C.ar           1 <1>               -0.0549
      7 O3         -23.1160   3.0186  12.6882 O.3            1 <1>               -0.5068
      8 C4         -26.2628  13.9777  20.2109 C.ar           1 <1>               -0.0163
      9 C5         -26.6775  14.6003  19.0314 C.ar           1 <1>                0.1582
     10 C6         -25.9769  14.3015  17.7759 C.ar           1 <1>                0.1585
     11 C7         -24.9073  13.4161  17.7577 C.ar           1 <1>               -0.0133
     12 C8         -23.7716  10.4075  19.3803 C.3            1 <1>                0.0001
     13 C9         -22.5030   8.7091  17.9320 C.3            1 <1>                0.0051
     14 C10        -21.2816   9.6293  17.8238 C.3            1 <1>               -0.0497
     15 C11        -22.6358   7.9331  16.6284 C.3            1 <1>               -0.0338
     16 C12        -23.8483   7.0049  16.6191 C.3            1 <1>               -0.0263
     17 C13        -23.6503   5.9154  15.5947 C.ar           1 <1>               -0.0471
     18 C14        -23.6259   4.5683  15.9760 C.ar           1 <1>               -0.0551
     19 C15        -23.4506   3.5904  15.0001 C.ar           1 <1>               -0.0199
     20 C16        -23.2837   3.9554  13.6592 C.ar           1 <1>                0.1169
     21 C17        -23.3011   5.2854  13.2792 C.ar           1 <1>               -0.0199
     22 C18        -23.4879   6.2670  14.2543 C.ar           1 <1>               -0.0551
     23 H11        -22.5765  12.1821  19.6435 H              1 <1>                0.0325
     24 H12        -22.8950  11.7896  17.9773 H              1 <1>                0.0325
     25 HN1        -24.4015   8.7323  18.4021 H              1 <1>                0.1222
     26 HO1        -27.2154  15.4403  16.9019 H              1 <1>                0.2923
     27 HO2        -28.2818  15.3862  19.7066 H              1 <1>                0.2923
     28 H3         -24.8368  12.6489  21.0843 H              1 <1>                0.0621
     29 HO3        -23.9742   2.7070  12.3915 H              1 <1>                0.2921
     30 H4         -26.7671  14.1602  21.1490 H              1 <1>                0.0655
     31 H7         -24.3848  13.1958  16.8383 H              1 <1>                0.0658
     32 H81        -24.7832  10.4338  19.7841 H              1 <1>                0.0427
     33 H82        -23.1224  10.0568  20.1828 H              1 <1>                0.0427
     34 H9         -22.3190   7.9946  18.7352 H              1 <1>                0.0458
     35 H101       -20.3995   9.0366  17.5797 H              1 <1>                0.0245
     36 H102       -21.4505  10.3682  17.0404 H              1 <1>                0.0245
     37 H103       -21.1247  10.1381  18.7748 H              1 <1>                0.0245
     38 H111       -21.7307   7.3491  16.4602 H              1 <1>                0.0283
     39 H112       -22.7092   8.6330  15.7961 H              1 <1>                0.0283
     40 H121       -24.7417   7.5779  16.3718 H              1 <1>                0.0314
     41 H122       -23.9712   6.5576  17.6059 H              1 <1>                0.0314
     42 H14        -23.7423   4.2986  17.0152 H              1 <1>                0.0621
     43 H15        -23.4428   2.5470  15.2768 H              1 <1>                0.0654
     44 H17        -23.1713   5.5521  12.2408 H              1 <1>                0.0654
     45 H18        -23.5061   7.3069  13.9624 H              1 <1>                0.0621
     46 ****       -23.8443  10.1123  17.5116 LP             1 <1>                0.0000
     47 ****       -26.6687  14.2523  15.9796 LP             1 <1>                0.0000
     48 ****       -25.7266  15.5410  16.3237 LP             1 <1>                0.0000
     49 ****       -28.2199  15.3278  18.1086 LP             1 <1>                0.0000
     50 ****       -27.3351  16.4220  18.9372 LP             1 <1>                0.0000
     51 ****       -22.5908   2.2501  13.0538 LP             1 <1>                0.0000
     52 ****       -22.6233   3.4223  11.9173 LP             1 <1>                0.0000
@<TRIPOS>BOND
    1    1    4 1     
    2    1   12 1     
    3    1   23 1     
    4    1   24 1     
    5    2   12 1     
    6    2   13 1     
    7    2   25 1     
    8    3   10 1     
    9    3   26 1     
   10    4    6 ar    
   11    4   11 ar    
   12    5    9 1     
   13    5   27 1     
   14    6    8 ar    
   15    6   28 1     
   16    7   20 1     
   17    7   29 1     
   18    8    9 ar    
   19    8   30 1     
   20    9   10 ar    
   21   10   11 ar    
   22   11   31 1     
   23   12   32 1     
   24   12   33 1     
   25   13   14 1     
   26   13   15 1     
   27   13   34 1     
   28   14   35 1     
   29   14   36 1     
   30   14   37 1     
   31   15   16 1     
   32   15   38 1     
   33   15   39 1     
   34   16   17 1     
   35   16   40 1     
   36   16   41 1     
   37   17   18 ar    
   38   17   22 ar    
   39   18   19 ar    
   40   18   42 1     
   41   19   20 ar    
   42   19   43 1     
   43   20   21 ar    
   44   21   22 ar    
   45   21   44 1     
   46   22   45 1     
   47    2   46 1     
   48    3   47 1     
   49    3   48 1     
   50    5   49 1     
   51    5   50 1     
   52    7   51 1     
   53    7   52 1     
@<TRIPOS>SUBSTRUCTURE
      1 ****           1
@<TRIPOS>SET
LONE_PAIRS      STATIC     ATOMS    <user>   **** ""
7 46 47 48 49 50 51 52
DONOR_HYDROGENS      STATIC     ATOMS    <user>   **** ""
4 25 26 27 29
ATOM$BLUE        STATIC     ATOMS    COLORGROUP SYSTEM
7 46 47 48 49 50 51 52
ATOM$RED        STATIC     ATOMS    COLORGROUP SYSTEM
4 25 26 27 29
@<TRIPOS>COMMENT
> <Gold.Version>
5.5

> <Gold.Id.Protein>
unknown|bialko_beta1|pdb

> <Gold.Protein.ActiveResidues>
 ALA86   ASP87   VAL90   VAL94   VAL95   GLY98   ALA99   LEU101  VAL102  CYS114 
 GLU115  TRP117  THR118  SER119  LEU120  ASP121  VAL122  CYS124  VAL125  THR126 
 SER128  SER173  PHE174  ILE177  CYS199  ASP200  PHE201  TYR207  SER215  PHE299 
 TRP303  PHE306  PHE307  ASN310  PHE325  VAL326  ASN329  TRP330  GLY332  TYR333 
 SER336 

> <Gold.Score>
     Score     S(PLP)   S(hbond)     S(cho)   S(metal)  DE(clash)   DE(tors)     intcor
     72.37     -70.60       1.00       0.00       0.00       0.00       0.69       0.15

> <Gold.PLP.Fitness>
72.3698

> <Gold.PLP.PLP>
-70.5972

> <Gold.PLP.part.hbond>
-1.0000

> <Gold.PLP.part.metal>
0.0000

> <Gold.PLP.part.buried>
-6.4451

> <Gold.PLP.part.nonpolar>
-63.1976

> <Gold.PLP.part.repulsive>
0.0000

> <Gold.PLP.ligand.clash>
0.0000

> <Gold.PLP.ligand.torsion>
0.6892

> <Gold.PLP.Chemscore.Hbond>
1.0000

> <Gold.PLP.Chemscore.CHOScore>
0.0000

> <Gold.PLP.Chemscore.Metal>
0.0000

> <Gold.Chemscore.Hbonds>
donor molecule, donor type, donor heavy atom, donor atom, acceptor molecule, acceptor atom, score
      L1  H     2    25       P1  2066  1.00

> <Gold.PLP.Chemscore.Internal.Correction>
0.1511

