#       Name:                C:\Users\porto\OneDrive\projekt\beta2\ligandy\L_4qkx.pdb L_4qkx.pdb 1
#       Creating user name   student
#       Creation time:       Mon Apr 08 16:10:48 2019


#       File generated by GOLD software.
#

@<TRIPOS>MOLECULE
C:\Users\porto\OneDrive\projekt\beta2\ligandy\L_4qkx.pdb L_4qkx.pdb 1|4qkx|mol2|1|dock50
    62    63     1
SMALL
GASTEIGER


@<TRIPOS>ATOM
      1 CAA        -34.1289   2.9551   4.1409 C.3            1 <1>                0.0790
      2 CAF        -27.5704  12.7048   5.2087 C.ar           1 <1>               -0.0162
      3 CAG        -34.1125   6.7037   7.3211 C.ar           1 <1>               -0.0548
      4 CAH        -28.8666  12.6787   5.7080 C.ar           1 <1>               -0.0524
      5 CAI        -34.9067   5.7058   7.8809 C.ar           1 <1>               -0.0160
      6 CAJ        -28.6109  10.3857   6.4222 C.ar           1 <1>               -0.0109
      7 CAK        -33.5205   5.2041   5.5270 C.ar           1 <1>               -0.0131
      8 CAL        -36.2289   2.1373   9.7336 C.3            1 <1>                0.0249
      9 CAM        -31.6346   7.9613   6.5385 C.3            1 <1>               -0.0000
     10 CAN        -35.8210   3.5064   9.1745 C.3            1 <1>                0.0985
     11 CAO        -32.6176   7.4023   5.4990 C.3            1 <1>               -0.0150
     12 CAP        -31.0917  10.3101   7.5858 C.3            1 <1>                0.0261
     13 CAT        -26.8018  11.5578   5.3224 C.ar           1 <1>                0.1582
     14 CAU        -27.3146  10.4119   5.9210 C.ar           1 <1>                0.1586
     15 CAV        -33.4097   6.4473   6.1428 C.ar           1 <1>               -0.0425
     16 CAW        -29.3867  11.5297   6.2964 C.ar           1 <1>               -0.0143
     17 CAX        -34.9996   4.4674   7.2613 C.ar           1 <1>                0.1619
     18 CAY        -34.3141   4.2184   6.0798 C.ar           1 <1>                0.1618
     19 CAZ        -30.6858  11.5610   6.7899 C.3            1 <1>                0.0927
     20 NAQ        -31.5011   9.4244   6.4964 N.3            1 <1>               -0.3129
     21 OAB        -25.5243  11.4991   4.8607 O.3            1 <1>               -0.5033
     22 OAC        -26.4898   9.3316   5.9886 O.3            1 <1>               -0.5033
     23 OAD        -31.6575  11.8124   5.7622 O.3            1 <1>               -0.3859
     24 OAR        -34.4363   2.9764   5.5405 O.3            1 <1>               -0.4914
     25 OAS        -35.7461   3.4389   7.7478 O.3            1 <1>               -0.4875
     26 SAE        -37.7035   2.2505  10.8070 S.3            1 <1>               -0.1749
     27 HAA1       -34.2415   1.9407   3.7589 H              1 <1>                0.0660
     28 HAA2       -34.8087   3.6203   3.6085 H              1 <1>                0.0660
     29 HAA3       -33.1023   3.2880   3.9888 H              1 <1>                0.0660
     30 HAF        -27.1871  13.6032   4.7468 H              1 <1>                0.0655
     31 HAG        -34.0425   7.6694   7.7986 H              1 <1>                0.0621
     32 HAH        -29.4877  13.5596   5.6427 H              1 <1>                0.0622
     33 HAI        -35.4490   5.8959   8.7953 H              1 <1>                0.0655
     34 HAJ        -28.9887   9.4913   6.8941 H              1 <1>                0.0659
     35 HAK        -32.9811   5.0128   4.6113 H              1 <1>                0.0658
     36 HAL1       -36.4325   1.4542   8.9086 H              1 <1>                0.0407
     37 HAL2       -35.3991   1.7156  10.3004 H              1 <1>                0.0407
     38 HAM1       -30.6551   7.5044   6.3929 H              1 <1>                0.0427
     39 HAM2       -31.9504   7.6557   7.5357 H              1 <1>                0.0427
     40 HAN1       -34.8480   3.7872   9.5767 H              1 <1>                0.0705
     41 HAN2       -36.5605   4.2523   9.4643 H              1 <1>                0.0705
     42 HAO1       -32.0599   6.9269   4.6920 H              1 <1>                0.0325
     43 HAO2       -33.2509   8.2078   5.1280 H              1 <1>                0.0325
     44 HAP1       -30.2084   9.8945   8.0701 H              1 <1>                0.0453
     45 HAP2       -31.9609  10.5449   8.1994 H              1 <1>                0.0453
     46 HAZ        -30.7375  12.4014   7.4814 H              1 <1>                0.0656
     47 HNAQ       -30.8181   9.6810   5.7980 H              1 <1>                0.1220
     48 HOAB       -24.9535  12.0210   5.4295 H              1 <1>                0.2923
     49 HOAC       -25.6108   9.6152   6.2505 H              1 <1>                0.2923
     50 HOAD       -32.5090  11.4634   6.0339 H              1 <1>                0.2103
     51 HSAE       -38.4016   1.1143  10.7267 H              1 <1>                0.1017
     52 ****       -32.4847   9.5788   6.4032 LP             1 <1>                0.0000
     53 ****       -25.4894  11.8625   3.9298 LP             1 <1>                0.0000
     54 ****       -25.2139  10.5484   4.8593 LP             1 <1>                0.0000
     55 ****       -26.4442   8.8906   5.0922 LP             1 <1>                0.0000
     56 ****       -26.8449   8.6829   6.6616 LP             1 <1>                0.0000
     57 ****       -31.3695  11.3661   4.9150 LP             1 <1>                0.0000
     58 ****       -31.7344  12.7978   5.6104 LP             1 <1>                0.0000
     59 ****       -33.8114   2.3572   6.0159 LP             1 <1>                0.0000
     60 ****       -35.3773   2.6626   5.6674 LP             1 <1>                0.0000
     61 ****       -36.6691   3.4930   7.3668 LP             1 <1>                0.0000
     62 ****       -35.3255   2.5718   7.4808 LP             1 <1>                0.0000
@<TRIPOS>BOND
    1    1   24 1     
    2    1   27 1     
    3    1   28 1     
    4    1   29 1     
    5    2    4 ar    
    6    2   13 ar    
    7    2   30 1     
    8    3    5 ar    
    9    3   15 ar    
   10    3   31 1     
   11    4   16 ar    
   12    4   32 1     
   13    5   17 ar    
   14    5   33 1     
   15    6   14 ar    
   16    6   16 ar    
   17    6   34 1     
   18    7   18 ar    
   19    7   15 ar    
   20    7   35 1     
   21    8   26 1     
   22    8   10 1     
   23    8   36 1     
   24    8   37 1     
   25    9   11 1     
   26    9   20 1     
   27    9   38 1     
   28    9   39 1     
   29   10   25 1     
   30   10   40 1     
   31   10   41 1     
   32   11   15 1     
   33   11   42 1     
   34   11   43 1     
   35   12   20 1     
   36   12   19 1     
   37   12   44 1     
   38   12   45 1     
   39   13   21 1     
   40   13   14 ar    
   41   14   22 1     
   42   16   19 1     
   43   17   25 1     
   44   17   18 ar    
   45   18   24 1     
   46   19   23 1     
   47   19   46 1     
   48   20   47 1     
   49   21   48 1     
   50   22   49 1     
   51   23   50 1     
   52   26   51 1     
   53   20   52 1     
   54   21   53 1     
   55   21   54 1     
   56   22   55 1     
   57   22   56 1     
   58   23   57 1     
   59   23   58 1     
   60   24   59 1     
   61   24   60 1     
   62   25   61 1     
   63   25   62 1     
@<TRIPOS>SUBSTRUCTURE
      1 ****           1
@<TRIPOS>SET
LONE_PAIRS      STATIC     ATOMS    <user>   **** ""
11 52 53 54 55 56 57 58 59 60 61 62
DONOR_HYDROGENS      STATIC     ATOMS    <user>   **** ""
4 47 48 49 50
ATOM$BLUE        STATIC     ATOMS    COLORGROUP SYSTEM
11 52 53 54 55 56 57 58 59 60 61 62
ATOM$RED        STATIC     ATOMS    COLORGROUP SYSTEM
4 47 48 49 50
@<TRIPOS>COMMENT
> <Gold.Version>
5.5

> <Gold.Id.Protein>
unknown|dok_beta2|pdb

> <Gold.Protein.RotatedTorsions>
[ 4175 4166 4165 4163 ] final   79.52 input -179.98 | X-H torsion
[ 1294 1290 1288 1285 ] final  179.69 input -179.99 | X-H torsion
[ 4033 4024 4023 4021 ] final   44.49 input  179.98 | X-H torsion
[ 1412 1408 1406 1403 ] final   -4.49 input -179.99 | X-H torsion
[ 2830 2825 2824 2821 ] final   97.48 input -179.98 | X-H torsion
[ 2723 2714 2713 2711 ] final   75.61 input -179.98 | X-H torsion
[ 2773 2768 2767 2764 ] final  -82.64 input  180.00 | X-H torsion

> <Gold.Protein.ActiveResidues>
 TRP109  THR110  ASP113  VAL114  VAL117  THR118  PHE193  TYR199  SER203  SER207 
 PHE208  TRP286  PHE289  PHE290  ASN293  TYR308  ASN312  TYR316 

> <Gold.Protein.RotatedAtoms>
  -33.9791    3.5940    1.6406 H   0  0  0  0  0  0  0  0  0  0  0  0  # atno 1294 bound_to 1290
  -27.6778   15.1285    3.3779 H   0  0  0  0  0  0  0  0  0  0  0  0  # atno 1412 bound_to 1408
  -26.8130    7.1037    1.4365 H   0  0  0  0  0  0  0  0  0  0  0  0  # atno 2723 bound_to 2714
  -24.3818   10.3399    3.9058 H   0  0  0  0  0  0  0  0  0  0  0  0  # atno 2773 bound_to 2768
  -23.7520   12.8494    3.0921 H   0  0  0  0  0  0  0  0  0  0  0  0  # atno 2830 bound_to 2825
  -29.3918    6.3343   10.7162 H   0  0  0  0  0  0  0  0  0  0  0  0  # atno 4033 bound_to 4024
  -37.6095    8.9214    7.2384 H   0  0  0  0  0  0  0  0  0  0  0  0  # atno 4175 bound_to 4166
  -37.0249    8.2548    8.5706 LP  0  0  0  0  0  0  0  0  0  0  0  0  # atno 4597 bound_to 4166
  -36.0874    9.2126    7.6377 LP  0  0  0  0  0  0  0  0  0  0  0  0  # atno 4598 bound_to 4166
  -35.3589    4.2852    1.2168 LP  0  0  0  0  0  0  0  0  0  0  0  0  # atno 4603 bound_to 1290
  -34.6698    4.6166    2.6596 LP  0  0  0  0  0  0  0  0  0  0  0  0  # atno 4604 bound_to 1290
  -28.1405    5.3725   10.9835 LP  0  0  0  0  0  0  0  0  0  0  0  0  # atno 4607 bound_to 4024
  -28.1525    6.9019   11.5555 LP  0  0  0  0  0  0  0  0  0  0  0  0  # atno 4608 bound_to 4024
  -26.5586   14.9186    2.2534 LP  0  0  0  0  0  0  0  0  0  0  0  0  # atno 4611 bound_to 1408
  -28.1142   14.5131    1.9665 LP  0  0  0  0  0  0  0  0  0  0  0  0  # atno 4612 bound_to 1408
  -23.7068   14.1114    2.1095 LP  0  0  0  0  0  0  0  0  0  0  0  0  # atno 4613 bound_to 2825
  -25.1207   13.3658    2.4437 LP  0  0  0  0  0  0  0  0  0  0  0  0  # atno 4614 bound_to 2825

> <Gold.Score>
     Score     S(PLP)   S(hbond)     S(cho)   S(metal)  DE(clash)   DE(tors)     intcor
     80.38     -77.07       2.00       0.00       0.00       3.16       2.01       4.49

> <Gold.PLP.Fitness>
80.3805

> <Gold.PLP.PLP>
-77.0668

> <Gold.PLP.part.hbond>
-5.6620

> <Gold.PLP.part.metal>
0.0000

> <Gold.PLP.part.buried>
-4.0528

> <Gold.PLP.part.nonpolar>
-68.1760

> <Gold.PLP.part.repulsive>
0.2753

> <Gold.PLP.ligand.clash>
3.1606

> <Gold.PLP.ligand.torsion>
2.0079

> <Gold.PLP.Chemscore.Hbond>
2.0000

> <Gold.PLP.Chemscore.CHOScore>
0.0000

> <Gold.PLP.Chemscore.Metal>
0.0000

> <Gold.Chemscore.Hbonds>
donor molecule, donor type, donor heavy atom, donor atom, acceptor molecule, acceptor atom, score
      L1  H    23    50       P1  1334  1.00
      P1  H  2768  2773       L1    21  1.00

> <Gold.PLP.Chemscore.Internal.Correction>
4.4902

