#       Name:                plp ligand
#       Creating user name   student
#       Creation time:       Mon Apr 08 16:09:51 2019


#       File generated by GOLD software.
#

@<TRIPOS>MOLECULE
plp ligand
    62    63     1
SMALL
GASTEIGER


@<TRIPOS>ATOM
      1 CAA         -4.2963  -0.1947   2.1608 NONPOLAR       1 <1>                0.0790
      2 CAF          4.5897   5.2483  -2.1252 NONPOLAR       1 <1>               -0.0162
      3 CAG         -0.7983  -2.9907   0.1398 NONPOLAR       1 <1>               -0.0548
      4 CAH          3.4587   4.7533  -1.4882 NONPOLAR       1 <1>               -0.0524
      5 CAI         -1.8843  -3.8377   0.3478 NONPOLAR       1 <1>               -0.0160
      6 CAJ          4.6947   2.8653  -0.6272 NONPOLAR       1 <1>               -0.0109
      7 CAK         -2.0563  -1.1687   1.0968 NONPOLAR       1 <1>               -0.0131
      8 CAL         -5.2603  -6.0487   0.2308 NONPOLAR       1 <1>                0.0249
      9 CAM         -0.4503   0.6273   0.0278 NONPOLAR       1 <1>               -0.0000
     10 CAN         -3.9353  -5.4467   0.7158 NONPOLAR       1 <1>                0.0985
     11 CAO          0.1637  -0.7397   0.3648 NONPOLAR       1 <1>               -0.0150
     12 CAP          1.7167   1.8793  -0.7752 NONPOLAR       1 <1>                0.0261
     13 CAT          5.7727   4.5373  -2.0052 NONPOLAR       1 <1>                0.1582
     14 CAU          5.8257   3.3603  -1.2662 NONPOLAR       1 <1>                0.1586
     15 CAV         -0.8893  -1.6477   0.5088 NONPOLAR       1 <1>               -0.0425
     16 CAW          3.5057   3.5693  -0.7582 NONPOLAR       1 <1>               -0.0143
     17 CAX         -3.0453  -3.3437   0.9258 NONPOLAR       1 <1>                0.1619
     18 CAY         -3.1293  -2.0117   1.3088 NONPOLAR       1 <1>                0.1618
     19 CAZ          2.3477   3.1243  -0.1312 NONPOLAR       1 <1>                0.0927
     20 NAQ          0.5197   1.7313   0.0518 DONACC         1 <1>               -0.3129
     21 OAB          6.9247   4.9523  -2.5962 DONACC         1 <1>               -0.5033
     22 OAC          7.0287   2.7273  -1.2032 DONACC         1 <1>               -0.5033
     23 OAD          1.3567   4.1573  -0.0112 DONACC         1 <1>               -0.3859
     24 OAR         -4.3043  -1.5937   1.8498 ACCEPTOR       1 <1>               -0.4914
     25 OAS         -4.1513  -4.1027   1.1548 ACCEPTOR       1 <1>               -0.4875
     26 SAE         -6.5293  -6.0537   1.5458 NONPOLAR       1 <1>               -0.1749
     27 HAA1        -5.2573   0.0883   2.5898 0ÿ¸hd          1 <1>                0.0660
     28 HAA2        -3.5033   0.0143   2.8788 0ÿ¸hd          1 <1>                0.0660
     29 HAA3        -4.1223   0.3793   1.2508 0ÿ¸hd          1 <1>                0.0660
     30 HAF          4.5317   6.1643  -2.6952 0ÿ¸hd          1 <1>                0.0655
     31 HAG          0.1077  -3.3737  -0.3052 0ÿ¸hd          1 <1>                0.0621
     32 HAH          2.5237   5.2893  -1.5552 0ÿ¸hd          1 <1>                0.0622
     33 HAI         -1.8223  -4.8767   0.0598 0ÿ¸hd          1 <1>                0.0655
     34 HAJ          4.7567   1.9563  -0.0482 0ÿ¸hd          1 <1>                0.0659
     35 HAK         -2.1193  -0.1307   1.3878 0ÿ¸hd          1 <1>                0.0658
     36 HAL1        -5.6263  -5.4797  -0.6242 0ÿ¸hd          1 <1>                0.0407
     37 HAL2        -5.0903  -7.0687  -0.1132 0ÿ¸hd          1 <1>                0.0407
     38 HAM1        -1.2603   0.8423   0.7258 0ÿ¸hd          1 <1>                0.0427
     39 HAM2        -0.9203   0.5803  -0.9542 0ÿ¸hd          1 <1>                0.0427
     40 HAN1        -3.2143  -5.4507  -0.1012 0ÿ¸hd          1 <1>                0.0705
     41 HAN2        -3.5473  -6.0407   1.5428 0ÿ¸hd          1 <1>                0.0705
     42 HAO1         0.7127  -0.6687   1.3038 0ÿ¸hd          1 <1>                0.0325
     43 HAO2         0.8087  -1.0597  -0.4532 0ÿ¸hd          1 <1>                0.0325
     44 HAP1         1.4177   2.1193  -1.7952 0ÿ¸hd          1 <1>                0.0453
     45 HAP2         2.3707   1.0233  -0.6112 0ÿ¸hd          1 <1>                0.0453
     46 HAZ          2.6297   2.8423   0.8828 0ÿ¸hd          1 <1>                0.0656
     47 HNAQ         0.0497   2.5983  -0.1662 0ÿ¸hd          1 <1>                0.1220
     48 HOAB         7.6287   4.3303  -2.3982 0ÿ¸hd          1 <1>                0.2923
     49 HOAC         7.6787   3.2233  -1.7062 0ÿ¸hd          1 <1>                0.2923
     50 HOAD         1.7507   4.9343   0.3908 0ÿ¸hd          1 <1>                0.2103
     51 HSAE        -7.6593  -6.5867   1.0728 0ÿ¸hd          1 <1>                0.1017
     52 ****         0.8684   1.4943   0.9585 0ÿ¸hd          1 <1>                0.0000
     53 ****         7.1711   5.8565  -2.2475 0ÿ¸hd          1 <1>                0.0000
     54 ****         6.7923   5.0016  -3.5862 0ÿ¸hd          1 <1>                0.0000
     55 ****         6.9418   1.8077  -1.5864 0ÿ¸hd          1 <1>                0.0000
     56 ****         7.3226   2.6645  -0.2495 0ÿ¸hd          1 <1>                0.0000
     57 ****         0.6037   3.8318   0.5607 0ÿ¸hd          1 <1>                0.0000
     58 ****         1.0085   4.3920  -0.9188 0ÿ¸hd          1 <1>                0.0000
     59 ****        -5.0402  -1.7733   1.1969 0ÿ¸hd          1 <1>                0.0000
     60 ****        -4.4717  -2.1086   2.6906 0ÿ¸hd          1 <1>                0.0000
     61 ****        -4.3522  -4.1047   2.1344 0ÿ¸hd          1 <1>                0.0000
     62 ****        -4.9262  -3.7141   0.6563 0ÿ¸hd          1 <1>                0.0000
@<TRIPOS>BOND
    1    1   24 1     
    2    1   27 1     
    3    1   28 1     
    4    1   29 1     
    5    2    4 ar    
    6    2   13 ar    
    7    2   30 1     
    8    3    5 ar    
    9    3   15 ar    
   10    3   31 1     
   11    4   16 ar    
   12    4   32 1     
   13    5   17 ar    
   14    5   33 1     
   15    6   14 ar    
   16    6   16 ar    
   17    6   34 1     
   18    7   18 ar    
   19    7   15 ar    
   20    7   35 1     
   21    8   26 1     
   22    8   10 1     
   23    8   36 1     
   24    8   37 1     
   25    9   11 1     
   26    9   20 1     
   27    9   38 1     
   28    9   39 1     
   29   10   25 1     
   30   10   40 1     
   31   10   41 1     
   32   11   15 1     
   33   11   42 1     
   34   11   43 1     
   35   12   20 1     
   36   12   19 1     
   37   12   44 1     
   38   12   45 1     
   39   13   21 1     
   40   13   14 ar    
   41   14   22 1     
   42   16   19 1     
   43   17   25 1     
   44   17   18 ar    
   45   18   24 1     
   46   19   23 1     
   47   19   46 1     
   48   20   47 1     
   49   21   48 1     
   50   22   49 1     
   51   23   50 1     
   52   26   51 1     
   53   20   52 1     
   54   21   53 1     
   55   21   54 1     
   56   22   55 1     
   57   22   56 1     
   58   23   57 1     
   59   23   58 1     
   60   24   59 1     
   61   24   60 1     
   62   25   61 1     
   63   25   62 1     
@<TRIPOS>SUBSTRUCTURE
      1 ****           1
@<TRIPOS>SET
LONE_PAIRS      STATIC     ATOMS    <user>   **** ""
11 52 53 54 55 56 57 58 59 60 61 62
DONOR_HYDROGENS      STATIC     ATOMS    <user>   **** ""
4 47 48 49 50
ATOM$BLUE        STATIC     ATOMS    COLORGROUP SYSTEM
11 52 53 54 55 56 57 58 59 60 61 62
ATOM$RED        STATIC     ATOMS    COLORGROUP SYSTEM
4 47 48 49 50
