#       Name:                C:\Users\porto\OneDrive\projekt\beta2\ligandy\L_6mxt.pdb L_6mxt.pdb 1
#       Creating user name   student
#       Creation time:       Mon Apr 08 15:15:19 2019


#       File generated by GOLD software.
#

@<TRIPOS>MOLECULE
C:\Users\porto\OneDrive\projekt\beta2\ligandy\L_6mxt.pdb L_6mxt.pdb 1|6mxt|mol2|1|dock21
    76    77     1
SMALL
GASTEIGER


@<TRIPOS>ATOM
      1 CAD        -37.6822   5.9986  11.1596 C.ar           1 <1>               -0.0617
      2 CAE        -36.3109   5.9510  11.3832 C.ar           1 <1>               -0.0615
      3 CAF        -38.3277   4.9072  10.5932 C.ar           1 <1>               -0.0615
      4 CAG        -35.5885   4.8106  11.0427 C.ar           1 <1>               -0.0586
      5 CAH        -37.6061   3.7679  10.2517 C.ar           1 <1>               -0.0586
      6 CAI        -27.3526  12.9922   5.1194 C.ar           1 <1>               -0.0195
      7 CAJ        -28.6822  13.0969   5.5082 C.ar           1 <1>               -0.0526
      8 CAK        -28.6729  10.7648   6.1322 C.ar           1 <1>               -0.0472
      9 CAL        -31.3454   8.2870   5.9666 C.3            1 <1>               -0.0518
     10 CAM        -32.2139   7.0494   6.2114 C.3            1 <1>               -0.0509
     11 CAN        -30.7839   8.7993   7.2943 C.3            1 <1>               -0.0404
     12 CAO        -33.0395   6.7451   4.9587 C.3            1 <1>               -0.0295
     13 CAP        -34.4916   3.7252   8.1495 C.3            1 <1>               -0.0292
     14 CAQ        -35.3324   2.5288   8.6072 C.3            1 <1>               -0.0470
     15 CAR        -26.6647   9.4512   5.8530 C.3            1 <1>                0.0727
     16 CAS        -31.9104   9.3599   8.1700 C.3            1 <1>               -0.0040
     17 CAT        -33.6780   5.3668   5.1134 C.3            1 <1>                0.0477
     18 CAU        -34.7026   3.9645   6.6553 C.3            1 <1>                0.0477
     19 CAV        -35.5196   2.5769  10.1300 C.3            1 <1>               -0.0276
     20 CAW        -30.8296  11.5054   7.8071 C.3            1 <1>                0.0261
     21 CAZ        -36.2347   3.7184  10.4750 C.ar           1 <1>               -0.0474
     22 NAX        -32.1136  10.7990   7.9173 N.3            1 <1>               -0.3132
     23 OAA        -27.0826   8.5862   4.7946 O.3            1 <1>               -0.3903
     24 OAB        -25.3937  11.6314   4.8716 O.3            1 <1>               -0.5064
     25 OAC        -31.4944  11.3468   5.5068 O.3            1 <1>               -0.3859
     26 OAY        -34.4104   5.3261   6.3406 O.3            1 <1>               -0.3798
     27 CBA        -26.6948  11.7779   5.2396 C.ar           1 <1>                0.1222
     28 CBB        -29.3401  11.9835   6.0161 C.ar           1 <1>               -0.0174
     29 CBC        -27.3432  10.6578   5.7431 C.ar           1 <1>                0.0195
     30 CBD        -30.6688  12.0936   6.3997 C.3            1 <1>                0.0926
     31 HAD        -38.2456   6.8810  11.4250 H              1 <1>                0.0618
     32 HAE        -35.8052   6.7987  11.8214 H              1 <1>                0.0618
     33 HAF        -39.3922   4.9417  10.4171 H              1 <1>                0.0618
     34 HAG        -34.5239   4.7730  11.2195 H              1 <1>                0.0620
     35 HAH        -38.1117   2.9203   9.8125 H              1 <1>                0.0620
     36 HAI        -26.8311  13.8521   4.7247 H              1 <1>                0.0654
     37 HAJ        -29.1997  14.0404   5.4144 H              1 <1>                0.0622
     38 HAK        -29.1917   9.9029   6.5250 H              1 <1>                0.0626
     39 HAL1       -30.5230   8.0268   5.3007 H              1 <1>                0.0266
     40 HAL2       -31.9479   9.0675   5.5021 H              1 <1>                0.0266
     41 HAM1       -32.8834   7.2362   7.0515 H              1 <1>                0.0266
     42 HAM2       -31.5745   6.1974   6.4409 H              1 <1>                0.0266
     43 HAN1       -30.0508   9.5822   7.1001 H              1 <1>                0.0277
     44 HAN2       -30.2888   7.9815   7.8183 H              1 <1>                0.0277
     45 HAO1       -32.3878   6.7473   4.0854 H              1 <1>                0.0287
     46 HAO2       -33.8204   7.4967   4.8476 H              1 <1>                0.0287
     47 HAP1       -34.7914   4.6139   8.7055 H              1 <1>                0.0287
     48 HAP2       -33.4376   3.5218   8.3394 H              1 <1>                0.0287
     49 HAQ1       -34.8269   1.6032   8.3324 H              1 <1>                0.0269
     50 HAQ2       -36.3070   2.5630   8.1204 H              1 <1>                0.0269
     51 HAR1       -25.5922   9.6292   5.7738 H              1 <1>                0.0608
     52 HAR2       -26.8977   8.9896   6.8127 H              1 <1>                0.0608
     53 HAS1       -31.6628   9.2075   9.2209 H              1 <1>                0.0424
     54 HAS2       -32.8347   8.8210   7.9618 H              1 <1>                0.0424
     55 HAT1       -32.8983   4.6057   5.1307 H              1 <1>                0.0560
     56 HAT2       -34.3564   5.1848   4.2800 H              1 <1>                0.0560
     57 HAU1       -35.7385   3.7460   6.3959 H              1 <1>                0.0560
     58 HAU2       -34.0420   3.3110   6.0860 H              1 <1>                0.0560
     59 HAV1       -34.5442   2.5995  10.6152 H              1 <1>                0.0313
     60 HAV2       -36.0671   1.6928  10.4567 H              1 <1>                0.0313
     61 HAW1       -30.7929  12.3089   8.5428 H              1 <1>                0.0453
     62 HAW2       -30.0140  10.8092   8.0050 H              1 <1>                0.0453
     63 HNAX       -32.6236  10.9212   7.0538 H              1 <1>                0.1220
     64 HOAA       -28.0403   8.5197   4.7938 H              1 <1>                0.2098
     65 HOAB       -24.8248  11.9940   5.5539 H              1 <1>                0.2921
     66 HOAC       -32.4165  11.5512   5.6766 H              1 <1>                0.2103
     67 HBD        -30.9708  13.1408   6.3980 H              1 <1>                0.0656
     68 ****       -32.6276  11.1784   8.6867 LP             1 <1>                0.0000
     69 ****       -26.6857   7.6783   4.9301 LP             1 <1>                0.0000
     70 ****       -26.7737   8.9577   3.9191 LP             1 <1>                0.0000
     71 ****       -25.2339  12.1167   4.0120 LP             1 <1>                0.0000
     72 ****       -25.1895  10.6602   4.7490 LP             1 <1>                0.0000
     73 ****       -31.3384  10.3691   5.6478 LP             1 <1>                0.0000
     74 ****       -31.2679  11.5878   4.5631 LP             1 <1>                0.0000
     75 ****       -35.2632   5.8386   6.2405 LP             1 <1>                0.0000
     76 ****       -33.8625   5.7304   7.0729 LP             1 <1>                0.0000
@<TRIPOS>BOND
    1    1    3 ar    
    2    1    2 ar    
    3    1   31 1     
    4    2    4 ar    
    5    2   32 1     
    6    3    5 ar    
    7    3   33 1     
    8    4   21 ar    
    9    4   34 1     
   10    5   21 ar    
   11    5   35 1     
   12    6   27 ar    
   13    6    7 ar    
   14    6   36 1     
   15    7   28 ar    
   16    7   37 1     
   17    8   29 ar    
   18    8   28 ar    
   19    8   38 1     
   20    9   11 1     
   21    9   10 1     
   22    9   39 1     
   23    9   40 1     
   24   10   12 1     
   25   10   41 1     
   26   10   42 1     
   27   11   16 1     
   28   11   43 1     
   29   11   44 1     
   30   12   17 1     
   31   12   45 1     
   32   12   46 1     
   33   13   18 1     
   34   13   14 1     
   35   13   47 1     
   36   13   48 1     
   37   14   19 1     
   38   14   49 1     
   39   14   50 1     
   40   15   23 1     
   41   15   29 1     
   42   15   51 1     
   43   15   52 1     
   44   16   22 1     
   45   16   53 1     
   46   16   54 1     
   47   17   26 1     
   48   17   55 1     
   49   17   56 1     
   50   18   26 1     
   51   18   57 1     
   52   18   58 1     
   53   19   21 1     
   54   19   59 1     
   55   19   60 1     
   56   20   30 1     
   57   20   22 1     
   58   20   61 1     
   59   20   62 1     
   60   22   63 1     
   61   23   64 1     
   62   24   27 1     
   63   24   65 1     
   64   25   30 1     
   65   25   66 1     
   66   27   29 ar    
   67   28   30 1     
   68   30   67 1     
   69   22   68 1     
   70   23   69 1     
   71   23   70 1     
   72   24   71 1     
   73   24   72 1     
   74   25   73 1     
   75   25   74 1     
   76   26   75 1     
   77   26   76 1     
@<TRIPOS>SUBSTRUCTURE
      1 ****           1
@<TRIPOS>SET
LONE_PAIRS      STATIC     ATOMS    <user>   **** ""
9 68 69 70 71 72 73 74 75 76
DONOR_HYDROGENS      STATIC     ATOMS    <user>   **** ""
4 63 64 65 66
ATOM$BLUE        STATIC     ATOMS    COLORGROUP SYSTEM
9 68 69 70 71 72 73 74 75 76
ATOM$RED        STATIC     ATOMS    COLORGROUP SYSTEM
4 63 64 65 66
@<TRIPOS>COMMENT
> <Gold.Version>
5.5

> <Gold.Id.Protein>
unknown|dok_beta2|pdb

> <Gold.Protein.RotatedTorsions>
[ 4175 4166 4165 4163 ] final   -8.25 input -179.98 | X-H torsion
[ 1294 1290 1288 1285 ] final  114.04 input -179.99 | X-H torsion
[ 4033 4024 4023 4021 ] final  -70.93 input  179.98 | X-H torsion
[ 1412 1408 1406 1403 ] final -158.66 input -179.99 | X-H torsion
[ 2830 2825 2824 2821 ] final  150.22 input -179.98 | X-H torsion
[ 2723 2714 2713 2711 ] final -144.69 input -179.98 | X-H torsion
[ 2773 2768 2767 2764 ] final  -75.71 input  180.00 | X-H torsion

> <Gold.Protein.ActiveResidues>
 TRP109  THR110  ASP113  VAL114  VAL117  THR118  PHE193  TYR199  SER203  SER207 
 PHE208  TRP286  PHE289  PHE290  ASN293  TYR308  ASN312  TYR316 

> <Gold.Protein.RotatedAtoms>
  -34.7245    3.7615    1.0251 H   0  0  0  0  0  0  0  0  0  0  0  0  # atno 1294 bound_to 1290
  -26.8786   14.7258    1.8578 H   0  0  0  0  0  0  0  0  0  0  0  0  # atno 1412 bound_to 1408
  -26.5328    7.8714    2.9260 H   0  0  0  0  0  0  0  0  0  0  0  0  # atno 2723 bound_to 2714
  -24.3198   10.4294    3.8951 H   0  0  0  0  0  0  0  0  0  0  0  0  # atno 2773 bound_to 2768
  -24.5474   12.7534    3.0306 H   0  0  0  0  0  0  0  0  0  0  0  0  # atno 2830 bound_to 2825
  -28.2208    5.3794   10.9600 H   0  0  0  0  0  0  0  0  0  0  0  0  # atno 4033 bound_to 4024
  -37.4653    8.2788    8.3059 H   0  0  0  0  0  0  0  0  0  0  0  0  # atno 4175 bound_to 4166
  -36.0272    8.9446    8.0829 LP  0  0  0  0  0  0  0  0  0  0  0  0  # atno 4597 bound_to 4166
  -37.2353    9.1927    7.0125 LP  0  0  0  0  0  0  0  0  0  0  0  0  # atno 4598 bound_to 4166
  -35.3240    4.7636    2.1195 LP  0  0  0  0  0  0  0  0  0  0  0  0  # atno 4603 bound_to 1290
  -33.9279    3.9637    2.3983 LP  0  0  0  0  0  0  0  0  0  0  0  0  # atno 4604 bound_to 1290
  -28.0949    6.8550   11.5675 LP  0  0  0  0  0  0  0  0  0  0  0  0  # atno 4607 bound_to 4024
  -29.4178    6.4141   10.7176 LP  0  0  0  0  0  0  0  0  0  0  0  0  # atno 4608 bound_to 4024
  -28.3653   14.6396    2.4440 LP  0  0  0  0  0  0  0  0  0  0  0  0  # atno 4611 bound_to 1408
  -27.1404   15.2117    3.3600 LP  0  0  0  0  0  0  0  0  0  0  0  0  # atno 4612 bound_to 1408
  -23.2578   13.5908    2.5879 LP  0  0  0  0  0  0  0  0  0  0  0  0  # atno 4613 bound_to 2825
  -24.7405   13.9866    2.0295 LP  0  0  0  0  0  0  0  0  0  0  0  0  # atno 4614 bound_to 2825

> <Gold.Score>
     Score     S(PLP)   S(hbond)     S(cho)   S(metal)  DE(clash)   DE(tors)     intcor
    105.92     -97.60       3.95       0.00       0.00       0.00       2.39       1.25

> <Gold.PLP.Fitness>
105.9154

> <Gold.PLP.PLP>
-97.6019

> <Gold.PLP.part.hbond>
-6.9860

> <Gold.PLP.part.metal>
0.0000

> <Gold.PLP.part.buried>
-4.8519

> <Gold.PLP.part.nonpolar>
-88.7708

> <Gold.PLP.part.repulsive>
0.0379

> <Gold.PLP.ligand.clash>
0.0000

> <Gold.PLP.ligand.torsion>
2.3919

> <Gold.PLP.Chemscore.Hbond>
3.9507

> <Gold.PLP.Chemscore.CHOScore>
0.0000

> <Gold.PLP.Chemscore.Metal>
0.0000

> <Gold.Chemscore.Hbonds>
donor molecule, donor type, donor heavy atom, donor atom, acceptor molecule, acceptor atom, score
      L1  H    22    63       P1  1334  0.60
      L1  H    25    66       P1  1334  1.00
      P1  H  2825  2830       L1    24  0.35
      P1  H  2714  2723       L1    23  1.00
      P1  H  2768  2773       L1    24  1.00

> <Gold.PLP.Chemscore.Internal.Correction>
1.2453

