#       Name:                C:\Users\porto\OneDrive\projekt\beta1\ligandy\L_4amj.pdb L_4amj.pdb 1
#       Creating user name   student
#       Creation time:       Mon Apr 08 14:44:55 2019


#       File generated by GOLD software.
#

@<TRIPOS>MOLECULE
C:\Users\porto\OneDrive\projekt\beta1\ligandy\L_4amj.pdb L_4amj.pdb 1|4amj|mol2|1|dock26
    65    68     1
SMALL
GASTEIGER


@<TRIPOS>ATOM
      1 C1         -23.9648   8.5746  16.4580 C.3            1 <1>                0.1015
      2 N1         -23.6146   5.3589  10.4601 N.pl3          1 <1>               -0.3540
      3 O1         -22.5503   8.3924  16.3673 O.3            1 <1>               -0.3872
      4 C2         -24.4677   8.8538  15.0620 C.3            1 <1>                0.1166
      5 N2         -23.7827   9.5690  18.6773 N.3            1 <1>               -0.3102
      6 O2         -24.3784   7.6128  14.3437 O.3            1 <1>               -0.4887
      7 C3         -24.3451   7.6527  12.9874 C.ar           1 <1>                0.1303
      8 O3         -24.2031  12.7175  18.3085 O.3            1 <1>               -0.4870
      9 C4         -23.9585   6.5471  12.2595 C.ar           1 <1>                0.0490
     10 O4         -25.6908  14.3052  16.5861 O.3            1 <1>               -0.4915
     11 C5         -23.6977   5.2447  12.6447 C.ar           1 <1>                0.0109
     12 C6         -23.9235   6.6044  10.8954 C.ar           1 <1>                0.0510
     13 C7         -23.4334   4.4981  11.5172 C.ar           1 <1>                0.0476
     14 C8         -23.6081   4.6681  13.8884 C.ar           1 <1>               -0.0519
     15 C9         -23.1196   3.1550  11.6364 C.ar           1 <1>               -0.0378
     16 C10        -22.9924   2.5439  12.8977 C.ar           1 <1>               -0.0598
     17 C11        -23.2454   3.2956  14.0157 C.ar           1 <1>               -0.0611
     18 C12        -24.2021   7.7790  10.2567 C.ar           1 <1>               -0.0375
     19 C13        -24.5327   8.8841  10.9604 C.ar           1 <1>               -0.0563
     20 C14        -24.5967   8.8463  12.3438 C.ar           1 <1>               -0.0192
     21 C15        -24.2755   9.8135  17.2983 C.3            1 <1>                0.0253
     22 C16        -24.2149  10.7095  19.5629 C.3            1 <1>                0.0302
     23 C17        -23.3853  11.9204  19.1676 C.3            1 <1>                0.1022
     24 C18        -25.2969  13.4510  18.7898 C.ar           1 <1>                0.1619
     25 C19        -26.0432  14.2513  17.9319 C.ar           1 <1>                0.1615
     26 C20        -27.1547  14.9742  18.3970 C.ar           1 <1>               -0.0163
     27 C21        -27.4990  14.9467  19.7306 C.ar           1 <1>               -0.0581
     28 C22        -26.7503  14.1480  20.5920 C.ar           1 <1>               -0.0581
     29 C23        -25.6699  13.3998  20.1114 C.ar           1 <1>               -0.0163
     30 C24        -26.3975  15.2107  15.7186 C.3            1 <1>                0.0790
     31 H1         -24.4454   7.6898  16.8755 H              1 <1>                0.0640
     32 HN1        -23.5464   5.1721   9.4700 H              1 <1>                0.1659
     33 HO1        -22.2397   7.9091  17.1357 H              1 <1>                0.2100
     34 H21        -23.8251   9.5944  14.5865 H              1 <1>                0.0723
     35 H22        -25.5094   9.1713  15.1085 H              1 <1>                0.0723
     36 HN2        -24.1693   8.7034  19.0246 H              1 <1>                0.1221
     37 H8         -23.8126   5.2548  14.7718 H              1 <1>                0.0624
     38 H9         -22.9671   2.5559  10.7514 H              1 <1>                0.0638
     39 H10        -22.7011   1.5057  12.9684 H              1 <1>                0.0618
     40 H11        -23.1689   2.8454  14.9947 H              1 <1>                0.0618
     41 H12        -24.1596   7.8312   9.1790 H              1 <1>                0.0638
     42 H13        -24.7502   9.8074  10.4444 H              1 <1>                0.0619
     43 H14        -24.8380   9.7286  12.9179 H              1 <1>                0.0654
     44 H151       -25.3528   9.9752  17.3214 H              1 <1>                0.0450
     45 H152       -23.7606  10.6764  16.8760 H              1 <1>                0.0450
     46 H161       -24.0142  10.4565  20.6042 H              1 <1>                0.0457
     47 H162       -25.2702  10.9218  19.3921 H              1 <1>                0.0457
     48 H171       -23.1316  12.4930  20.0600 H              1 <1>                0.0709
     49 H172       -22.5003  11.5917  18.6225 H              1 <1>                0.0709
     50 H20        -27.7462  15.5573  17.7075 H              1 <1>                0.0655
     51 H21        -28.3317  15.5360  20.0852 H              1 <1>                0.0619
     52 H22        -27.0020  14.1020  21.6414 H              1 <1>                0.0619
     53 H23        -25.1260  12.7732  20.8021 H              1 <1>                0.0655
     54 H241       -26.0013  15.1286  14.7068 H              1 <1>                0.0660
     55 H242       -27.4572  14.9576  15.7147 H              1 <1>                0.0660
     56 H243       -26.2695  16.2320  16.0769 H              1 <1>                0.0660
     57 ****       -22.1010   9.2850  16.3311 LP             1 <1>                0.0000
     58 ****       -22.3333   7.8761  15.5388 LP             1 <1>                0.0000
     59 ****       -22.7847   9.5053  18.6745 LP             1 <1>                0.0000
     60 ****       -25.1721   7.0629  14.6039 LP             1 <1>                0.0000
     61 ****       -23.5423   7.1555  14.6466 LP             1 <1>                0.0000
     62 ****       -23.5913  13.3797  17.8758 LP             1 <1>                0.0000
     63 ****       -24.5669  12.0966  17.6141 LP             1 <1>                0.0000
     64 ****       -24.7233  14.5548  16.5457 LP             1 <1>                0.0000
     65 ****       -25.8137  13.3855  16.2134 LP             1 <1>                0.0000
@<TRIPOS>BOND
    1    1    4 1     
    2    1   21 1     
    3    1    3 1     
    4    1   31 1     
    5    2   12 ar    
    6    2   13 ar    
    7    2   32 1     
    8    3   33 1     
    9    4    6 1     
   10    4   34 1     
   11    4   35 1     
   12    5   22 1     
   13    5   21 1     
   14    5   36 1     
   15    6    7 1     
   16    7    9 ar    
   17    7   20 ar    
   18    8   24 1     
   19    8   23 1     
   20    9   11 ar    
   21    9   12 ar    
   22   10   30 1     
   23   10   25 1     
   24   11   13 ar    
   25   11   14 ar    
   26   12   18 ar    
   27   13   15 ar    
   28   14   17 ar    
   29   14   37 1     
   30   15   16 ar    
   31   15   38 1     
   32   16   17 ar    
   33   16   39 1     
   34   17   40 1     
   35   18   19 ar    
   36   18   41 1     
   37   19   20 ar    
   38   19   42 1     
   39   20   43 1     
   40   21   44 1     
   41   21   45 1     
   42   22   23 1     
   43   22   46 1     
   44   22   47 1     
   45   23   48 1     
   46   23   49 1     
   47   24   25 ar    
   48   24   29 ar    
   49   25   26 ar    
   50   26   27 ar    
   51   26   50 1     
   52   27   28 ar    
   53   27   51 1     
   54   28   29 ar    
   55   28   52 1     
   56   29   53 1     
   57   30   54 1     
   58   30   55 1     
   59   30   56 1     
   60    3   57 1     
   61    3   58 1     
   62    5   59 1     
   63    6   60 1     
   64    6   61 1     
   65    8   62 1     
   66    8   63 1     
   67   10   64 1     
   68   10   65 1     
@<TRIPOS>SUBSTRUCTURE
      1 ****           1
@<TRIPOS>SET
LONE_PAIRS      STATIC     ATOMS    <user>   **** ""
9 57 58 59 60 61 62 63 64 65
DONOR_HYDROGENS      STATIC     ATOMS    <user>   **** ""
3 32 33 36
ATOM$BLUE        STATIC     ATOMS    COLORGROUP SYSTEM
9 57 58 59 60 61 62 63 64 65
ATOM$RED        STATIC     ATOMS    COLORGROUP SYSTEM
3 32 33 36
@<TRIPOS>COMMENT
> <Gold.Version>
5.5

> <Gold.Id.Protein>
unknown|bialko_beta1|pdb

> <Gold.Protein.ActiveResidues>
 ALA86   ASP87   VAL90   VAL94   VAL95   GLY98   ALA99   LEU101  VAL102  CYS114 
 GLU115  TRP117  THR118  SER119  LEU120  ASP121  VAL122  CYS124  VAL125  THR126 
 SER128  SER173  PHE174  ILE177  CYS199  ASP200  PHE201  TYR207  SER215  PHE299 
 TRP303  PHE306  PHE307  ASN310  PHE325  VAL326  ASN329  TRP330  GLY332  TYR333 
 SER336 

> <Gold.Score>
     Score     S(PLP)   S(hbond)     S(cho)   S(metal)  DE(clash)   DE(tors)     intcor
     91.15     -91.33       1.00       0.00       0.00       1.04       1.74       1.34

> <Gold.PLP.Fitness>
91.1466

> <Gold.PLP.PLP>
-91.3273

> <Gold.PLP.part.hbond>
-1.0000

> <Gold.PLP.part.metal>
0.0000

> <Gold.PLP.part.buried>
-10.1742

> <Gold.PLP.part.nonpolar>
-83.3111

> <Gold.PLP.part.repulsive>
1.5908

> <Gold.PLP.ligand.clash>
1.0393

> <Gold.PLP.ligand.torsion>
1.7405

> <Gold.PLP.Chemscore.Hbond>
1.0000

> <Gold.PLP.Chemscore.CHOScore>
0.0000

> <Gold.PLP.Chemscore.Metal>
0.0000

> <Gold.Chemscore.Hbonds>
donor molecule, donor type, donor heavy atom, donor atom, acceptor molecule, acceptor atom, score
      L1  H     5    36       P1  2066  1.00

> <Gold.PLP.Chemscore.Internal.Correction>
1.3397

