#       Name:                C:\Users\porto\OneDrive\projekt\beta1\ligandy\L_6h7j.pdb L_6h7j.pdb 1
#       Creating user name   student
#       Creation time:       Wed Apr 10 11:06:05 2019


#       File generated by GOLD software.
#

@<TRIPOS>MOLECULE
C:\Users\porto\OneDrive\projekt\beta1\ligandy\L_6h7j.pdb L_6h7j.pdb 1
    39    39     1
SMALL
GASTEIGER


@<TRIPOS>ATOM
      1 CAE         -0.8014  -0.8287   0.4520 C.3            1 <1>                0.0927
      2 CAF          0.1126   0.3753   0.7110 C.3            1 <1>                0.0263
      3 CAG          0.5236   2.2223   2.2820 C.3            1 <1>                0.0021
      4 CAH         -0.6234  -1.3257  -0.9890 C.ar           1 <1>               -0.0143
      5 CAI          0.0636   2.7743   3.6390 C.3            1 <1>               -0.0499
      6 CAJ          2.0586   2.2313   2.1860 C.3            1 <1>               -0.0499
      7 CAK         -1.2304  -0.6247  -2.0330 C.ar           1 <1>               -0.0109
      8 CAL          0.1276  -2.4687  -1.2780 C.ar           1 <1>               -0.0524
      9 CAM         -1.0784  -1.0437  -3.3540 C.ar           1 <1>                0.1586
     10 CAN          0.2716  -2.9007  -2.5950 C.ar           1 <1>               -0.0162
     11 CAO         -0.3304  -2.1877  -3.6290 C.ar           1 <1>                0.1582
     12 NAD         -0.0664   0.8773   2.0920 N.3            1 <1>               -0.3110
     13 OAA         -0.4834  -1.8477   1.3950 O.3            1 <1>               -0.3859
     14 OAB         -1.6664  -0.3487  -4.3660 O.3            1 <1>               -0.5033
     15 OAC         -0.1864  -2.6127  -4.9030 O.3            1 <1>               -0.5033
     16 HAE         -1.8384  -0.5237   0.5960 H              1 <1>                0.0656
     17 HAF1        -0.1234   1.1693   0.0030 H              1 <1>                0.0453
     18 HAF2         1.1516   0.0803   0.5640 H              1 <1>                0.0453
     19 HAG          0.1326   2.8753   1.5020 H              1 <1>                0.0455
     20 HAI1        -1.0254   2.7593   3.6880 H              1 <1>                0.0245
     21 HAI2         0.4706   2.1573   4.4400 H              1 <1>                0.0245
     22 HAI3         0.4186   3.7983   3.7540 H              1 <1>                0.0245
     23 HAJ1         2.4266   3.2463   2.3340 H              1 <1>                0.0245
     24 HAJ2         2.4746   1.5783   2.9530 H              1 <1>                0.0245
     25 HAJ3         2.3636   1.8753   1.2020 H              1 <1>                0.0245
     26 HAK         -1.8244   0.2513  -1.8210 H              1 <1>                0.0659
     27 HAL          0.5996  -3.0217  -0.4790 H              1 <1>                0.0622
     28 HAN          0.8496  -3.7867  -2.8130 H              1 <1>                0.0655
     29 HNAD        -1.0524   0.9353   2.3040 H              1 <1>                0.1223
     30 HOAA        -0.6034  -1.5097   2.2850 H              1 <1>                0.2103
     31 HOAB        -1.4624  -0.7697  -5.2040 H              1 <1>                0.2923
     32 HOAC         0.3526  -3.4067  -4.9170 H              1 <1>                0.2923
     33 ****         0.4010   0.2362   2.7006 LP             1 <1>                0.0000
     34 ****         0.4677  -2.1307   1.2715 LP             1 <1>                0.0000
     35 ****        -1.0860  -2.6330   1.2528 LP             1 <1>                0.0000
     36 ****        -1.3202   0.5894  -4.3713 LP             1 <1>                0.0000
     37 ****        -2.6572  -0.3376  -4.2311 LP             1 <1>                0.0000
     38 ****         0.2579  -1.8988  -5.4442 LP             1 <1>                0.0000
     39 ****        -1.0860  -2.8137  -5.2909 LP             1 <1>                0.0000
@<TRIPOS>BOND
    1    1    4 1     
    2    1   13 1     
    3    1    2 1     
    4    1   16 1     
    5    2   12 1     
    6    2   17 1     
    7    2   18 1     
    8    3    6 1     
    9    3   12 1     
   10    3    5 1     
   11    3   19 1     
   12    4    7 ar    
   13    4    8 ar    
   14    5   20 1     
   15    5   21 1     
   16    5   22 1     
   17    6   23 1     
   18    6   24 1     
   19    6   25 1     
   20    7    9 ar    
   21    7   26 1     
   22    8   10 ar    
   23    8   27 1     
   24    9   14 1     
   25    9   11 ar    
   26   10   11 ar    
   27   10   28 1     
   28   11   15 1     
   29   12   29 1     
   30   13   30 1     
   31   14   31 1     
   32   15   32 1     
   33   12   33 1     
   34   13   34 1     
   35   13   35 1     
   36   14   36 1     
   37   14   37 1     
   38   15   38 1     
   39   15   39 1     
@<TRIPOS>SUBSTRUCTURE
      1 ****           1
@<TRIPOS>SET
LONE_PAIRS      STATIC     ATOMS    <user>   **** ""
7 33 34 35 36 37 38 39
DONOR_HYDROGENS      STATIC     ATOMS    <user>   **** ""
4 29 30 31 32
ATOM$BLUE        STATIC     ATOMS    COLORGROUP SYSTEM
7 33 34 35 36 37 38 39
ATOM$RED        STATIC     ATOMS    COLORGROUP SYSTEM
4 29 30 31 32
