#       Name:                C:\Users\porto\OneDrive\projekt\beta1\ligandy\L_6h7j.pdb L_6h7j.pdb 1
#       Creating user name   student
#       Creation time:       Wed Apr 10 11:06:14 2019


#       File generated by GOLD software.
#

@<TRIPOS>MOLECULE
C:\Users\porto\OneDrive\projekt\beta1\ligandy\L_6h7j.pdb L_6h7j.pdb 1|6h7j|mol2|1|dock1
    39    39     1
SMALL
GASTEIGER


@<TRIPOS>ATOM
      1 CAE        -23.1476   5.8542  16.1044 C.3            1 <1>                0.0927
      2 CAF        -21.9978   6.8689  16.1277 C.3            1 <1>                0.0263
      3 CAG        -21.1191   8.8664  17.2619 C.3            1 <1>                0.0021
      4 CAH        -22.9576   4.8684  14.9437 C.ar           1 <1>               -0.0143
      5 CAI        -21.6291  10.1636  17.9061 C.3            1 <1>               -0.0499
      6 CAJ        -19.9354   8.2944  18.0601 C.3            1 <1>               -0.0499
      7 CAK        -23.3614   5.2396  13.6595 C.ar           1 <1>               -0.0109
      8 CAL        -22.3954   3.6047  15.1456 C.ar           1 <1>               -0.0524
      9 CAM        -23.1919   4.3714  12.5819 C.ar           1 <1>                0.1586
     10 CAN        -22.2364   2.7269  14.0751 C.ar           1 <1>               -0.0162
     11 CAO        -22.6338   3.1120  12.7969 C.ar           1 <1>                0.1582
     12 NAD        -22.2522   7.9208  17.1377 N.3            1 <1>               -0.3110
     13 OAA        -23.1791   5.1791  17.3582 O.3            1 <1>               -0.3859
     14 OAB        -23.5803   4.7455  11.3321 O.3            1 <1>               -0.5033
     15 OAC        -22.4766   2.2556  11.7643 O.3            1 <1>               -0.5033
     16 HAE        -24.0883   6.3879  15.9656 H              1 <1>                0.0656
     17 HAF1       -21.8978   7.3270  15.1441 H              1 <1>                0.0453
     18 HAF2       -21.0659   6.3558  16.3651 H              1 <1>                0.0453
     19 HAG        -20.7665   9.1039  16.2585 H              1 <1>                0.0455
     20 HAI1       -20.8116  10.8815  17.9755 H              1 <1>                0.0245
     21 HAI2       -22.4287  10.5833  17.2959 H              1 <1>                0.0245
     22 HAI3       -22.0096   9.9484  18.9045 H              1 <1>                0.0245
     23 HAJ1       -19.4945   7.4625  17.5114 H              1 <1>                0.0245
     24 HAJ2       -19.1857   9.0718  18.2059 H              1 <1>                0.0245
     25 HAJ3       -20.2868   7.9428  19.0301 H              1 <1>                0.0245
     26 HAK        -23.8097   6.2074  13.4936 H              1 <1>                0.0659
     27 HAL        -22.0820   3.3043  16.1348 H              1 <1>                0.0622
     28 HAN        -21.8051   1.7499  14.2367 H              1 <1>                0.0655
     29 HNAD       -23.0727   8.4484  16.8750 H              1 <1>                0.1223
     30 HOAA       -23.9348   4.5884  17.3854 H              1 <1>                0.2103
     31 HOAB       -23.3428   5.6636  11.1846 H              1 <1>                0.2923
     32 HOAC       -22.8115   1.3908  12.0113 H              1 <1>                0.2923
     33 ****       -22.3797   7.4602  18.0160 LP             1 <1>                0.0000
     34 ****       -23.2539   5.8500  18.0960 LP             1 <1>                0.0000
     35 ****       -22.3383   4.6500  17.4728 LP             1 <1>                0.0000
     36 ****       -24.5708   4.6393  11.2450 LP             1 <1>                0.0000
     37 ****       -23.1225   4.1699  10.6545 LP             1 <1>                0.0000
     38 ****       -21.5057   2.1841  11.5356 LP             1 <1>                0.0000
     39 ****       -22.9819   2.5944  10.9706 LP             1 <1>                0.0000
@<TRIPOS>BOND
    1    1    4 1     
    2    1   13 1     
    3    1    2 1     
    4    1   16 1     
    5    2   12 1     
    6    2   17 1     
    7    2   18 1     
    8    3    6 1     
    9    3   12 1     
   10    3    5 1     
   11    3   19 1     
   12    4    7 ar    
   13    4    8 ar    
   14    5   20 1     
   15    5   21 1     
   16    5   22 1     
   17    6   23 1     
   18    6   24 1     
   19    6   25 1     
   20    7    9 ar    
   21    7   26 1     
   22    8   10 ar    
   23    8   27 1     
   24    9   14 1     
   25    9   11 ar    
   26   10   11 ar    
   27   10   28 1     
   28   11   15 1     
   29   12   29 1     
   30   13   30 1     
   31   14   31 1     
   32   15   32 1     
   33   12   33 1     
   34   13   34 1     
   35   13   35 1     
   36   14   36 1     
   37   14   37 1     
   38   15   38 1     
   39   15   39 1     
@<TRIPOS>SUBSTRUCTURE
      1 ****           1
@<TRIPOS>SET
LONE_PAIRS      STATIC     ATOMS    <user>   **** ""
7 33 34 35 36 37 38 39
DONOR_HYDROGENS      STATIC     ATOMS    <user>   **** ""
4 29 30 31 32
ATOM$BLUE        STATIC     ATOMS    COLORGROUP SYSTEM
7 33 34 35 36 37 38 39
ATOM$RED        STATIC     ATOMS    COLORGROUP SYSTEM
4 29 30 31 32
@<TRIPOS>COMMENT
> <Gold.Version>
5.6

> <Gold.Id.Protein>
unknown|bialko_beta1 1|pdb

> <Gold.Protein.ActiveResidues>
 ALA86   ASP87   VAL90   VAL94   VAL95   GLY98   ALA99   LEU101  VAL102  CYS114 
 GLU115  TRP117  THR118  SER119  LEU120  ASP121  VAL122  CYS124  VAL125  THR126 
 SER128  SER173  PHE174  ILE177  CYS199  ASP200  PHE201  TYR207  SER215  PHE299 
 TRP303  PHE306  PHE307  ASN310  PHE325  VAL326  ASN329  TRP330  GLY332  TYR333 
 SER336 

> <Gold.Score>
     Fitness  S(hb_ext) S(vdw_ext)  S(hb_int)    S(int)      intcor
     37.00       0.00      27.21       0.00      -0.41      -8.36

> <Gold.Goldscore.Fitness>
36.9967

> <Gold.Goldscore.Internal.Vdw>
-5.5998

> <Gold.Goldscore.Internal.Torsion>
-3.1743

> <Gold.Goldscore.External.Vdw>
27.2051

> <Gold.Goldscore.Internal.HBond>
0.0000

> <Gold.Goldscore.External.HBond>
0.0000

> <Gold.Goldscore.Internal.Correction>
-8.3637

> <Gold.Goldscore.Internal.Vdw.Weighted>
-5.5998

> <Gold.Goldscore.Internal.Torsion.Weighted>
-3.1743

> <Gold.Goldscore.External.Vdw.Weighted>
37.4070

> <Gold.Goldscore.Internal.HBond.Weighted>
0.0000

> <Gold.Goldscore.External.HBond.Weighted>
0.0000

> <Gold.Goldscore.Internal.Correction.Weighted>
-8.3637

