#       Name:                C:\Users\porto\OneDrive\projekt\beta1\ligandy\L_2y02.pdb L_2y02.pdb 1
#       Creating user name   student
#       Creation time:       Mon Apr 01 15:36:41 2019


#       File generated by GOLD software.
#

@<TRIPOS>MOLECULE
C:\Users\porto\OneDrive\projekt\beta1\ligandy\L_2y02.pdb L_2y02.pdb 1|2y02|mol2|1|dock6
    60    62     1
SMALL
GASTEIGER


@<TRIPOS>ATOM
      1 C1         -25.3205  13.3791  17.7913 C.ar           1 <1>               -0.0471
      2 N1         -26.2705  14.7418  20.0721 N.am           1 <1>               -0.3192
      3 O1         -27.7501  15.7750  18.7376 O.2            1 <1>               -0.2679
      4 C2         -24.7331  13.1371  19.0278 C.ar           1 <1>                0.0078
      5 N2         -23.5098   8.9476  18.1184 N.3            1 <1>               -0.3104
      6 O2         -25.1369  14.3024  22.5820 O.3            1 <1>               -0.5047
      7 C3         -23.6081  12.1692  19.2444 C.ar           1 <1>               -0.0086
      8 O3         -23.2230   2.7593  13.6071 O.3            1 <1>               -0.4951
      9 C4         -23.1118  12.0112  20.5558 C.ar           1 <1>               -0.0519
     10 O4         -21.8067  10.7450  18.4935 O.3            1 <1>               -0.3859
     11 C5         -23.6081  12.7020  21.6580 C.ar           1 <1>               -0.0178
     12 C6         -24.6584  13.6124  21.5257 C.ar           1 <1>                0.1407
     13 C7         -25.2675  13.8690  20.2077 C.ar           1 <1>                0.0915
     14 C8         -26.3656  14.2970  17.7145 C.ar           1 <1>                0.0034
     15 C9         -26.8157  14.9587  18.8580 C.ar           1 <1>                0.2493
     16 C10        -23.0342  11.3824  18.1084 C.3            1 <1>                0.0932
     17 C11        -23.9978  10.2651  17.7149 C.3            1 <1>                0.0264
     18 C12        -22.9796   8.0036  17.1312 C.3            1 <1>                0.0089
     19 C13        -21.5602   8.3452  16.6654 C.3            1 <1>               -0.0494
     20 C14        -23.9083   7.9021  15.9213 C.3            1 <1>               -0.0125
     21 C15        -23.7365   6.5285  15.3160 C.ar           1 <1>               -0.0457
     22 C16        -23.4748   6.4135  13.9543 C.ar           1 <1>               -0.0551
     23 C17        -23.2994   5.1542  13.3828 C.ar           1 <1>               -0.0197
     24 C18        -23.3888   4.0072  14.1763 C.ar           1 <1>                0.1201
     25 C19        -23.6499   4.1252  15.5448 C.ar           1 <1>               -0.0197
     26 C20        -23.8284   5.3824  16.1137 C.ar           1 <1>               -0.0551
     27 C21        -22.9547   2.6170  12.2061 C.3            1 <1>                0.0788
     28 H1         -24.9650  12.8602  16.9138 H              1 <1>                0.0626
     29 HN1        -26.6198  15.2382  20.8792 H              1 <1>                0.1690
     30 HN2        -24.3051   8.5362  18.5850 H              1 <1>                0.1223
     31 HO2        -24.8588  15.2187  22.5187 H              1 <1>                0.2922
     32 H4         -22.3018  11.3229  20.7467 H              1 <1>                0.0622
     33 HO4        -21.1478  10.8768  17.8076 H              1 <1>                0.2103
     34 H5         -23.1802  12.5377  22.6363 H              1 <1>                0.0655
     35 H8         -26.8358  14.5019  16.7640 H              1 <1>                0.0672
     36 H10        -22.8586  12.0378  17.2552 H              1 <1>                0.0656
     37 H111       -24.9706  10.4469  18.1722 H              1 <1>                0.0453
     38 H112       -24.1498  10.2804  16.6359 H              1 <1>                0.0453
     39 H12        -22.9437   7.0211  17.6015 H              1 <1>                0.0461
     40 H131       -21.2290   7.6063  15.9357 H              1 <1>                0.0245
     41 H132       -21.5555   9.3340  16.2083 H              1 <1>                0.0245
     42 H133       -20.8847   8.3376  17.5207 H              1 <1>                0.0245
     43 H141       -23.6324   8.6596  15.1875 H              1 <1>                0.0328
     44 H142       -24.9411   8.0293  16.2451 H              1 <1>                0.0328
     45 H16        -23.4078   7.2997  13.3401 H              1 <1>                0.0621
     46 H17        -23.0944   5.0649  12.3262 H              1 <1>                0.0654
     47 H19        -23.7134   3.2405  16.1610 H              1 <1>                0.0654
     48 H20        -24.0376   5.4745  17.1695 H              1 <1>                0.0621
     49 H211       -22.8584   1.5597  11.9593 H              1 <1>                0.0660
     50 H212       -23.7743   3.0499  11.6326 H              1 <1>                0.0660
     51 H213       -22.0272   3.1330  11.9588 H              1 <1>                0.0660
     52 ****       -28.0921  16.2654  19.5392 LP             1 <1>                0.0000
     53 ****       -28.1578  15.9394  17.8394 LP             1 <1>                0.0000
     54 ****       -22.6797   9.1119  18.6513 LP             1 <1>                0.0000
     55 ****       -24.7827  13.9044  23.4282 LP             1 <1>                0.0000
     56 ****       -26.1359  14.2568  22.5849 LP             1 <1>                0.0000
     57 ****       -22.4606   2.3264  14.0880 LP             1 <1>                0.0000
     58 ****       -24.0641   2.2498  13.7887 LP             1 <1>                0.0000
     59 ****       -21.9651   9.7657  18.6195 LP             1 <1>                0.0000
     60 ****       -21.4795  11.1427  19.3506 LP             1 <1>                0.0000
@<TRIPOS>BOND
    1    1    4 ar    
    2    1   14 ar    
    3    1   28 1     
    4    2   13 ar    
    5    2   15 am    
    6    2   29 1     
    7    3   15 2     
    8    4    7 ar    
    9    4   13 ar    
   10    5   18 1     
   11    5   17 1     
   12    5   30 1     
   13    6   12 1     
   14    6   31 1     
   15    7   16 1     
   16    7    9 ar    
   17    8   27 1     
   18    8   24 1     
   19    9   11 ar    
   20    9   32 1     
   21   10   16 1     
   22   10   33 1     
   23   11   12 ar    
   24   11   34 1     
   25   12   13 ar    
   26   14   15 ar    
   27   14   35 1     
   28   16   17 1     
   29   16   36 1     
   30   17   37 1     
   31   17   38 1     
   32   18   19 1     
   33   18   20 1     
   34   18   39 1     
   35   19   40 1     
   36   19   41 1     
   37   19   42 1     
   38   20   21 1     
   39   20   43 1     
   40   20   44 1     
   41   21   22 ar    
   42   21   26 ar    
   43   22   23 ar    
   44   22   45 1     
   45   23   24 ar    
   46   23   46 1     
   47   24   25 ar    
   48   25   26 ar    
   49   25   47 1     
   50   26   48 1     
   51   27   49 1     
   52   27   50 1     
   53   27   51 1     
   54    3   52 1     
   55    3   53 1     
   56    5   54 1     
   57    6   55 1     
   58    6   56 1     
   59    8   57 1     
   60    8   58 1     
   61   10   59 1     
   62   10   60 1     
@<TRIPOS>SUBSTRUCTURE
      1 ****           1
@<TRIPOS>SET
LONE_PAIRS      STATIC     ATOMS    <user>   **** ""
9 52 53 54 55 56 57 58 59 60
DONOR_HYDROGENS      STATIC     ATOMS    <user>   **** ""
4 29 30 31 33
ATOM$BLUE        STATIC     ATOMS    COLORGROUP SYSTEM
9 52 53 54 55 56 57 58 59 60
ATOM$RED        STATIC     ATOMS    COLORGROUP SYSTEM
4 29 30 31 33
@<TRIPOS>COMMENT
> <Gold.Version>
5.5

> <Gold.Id.Protein>
unknown|bialko_beta1|pdb

> <Gold.Protein.ActiveResidues>
 ALA86   ASP87   VAL90   VAL94   VAL95   GLY98   ALA99   LEU101  VAL102  CYS114 
 GLU115  TRP117  THR118  SER119  LEU120  ASP121  VAL122  CYS124  VAL125  THR126 
 SER128  SER173  PHE174  ILE177  CYS199  ASP200  PHE201  TYR207  SER215  PHE299 
 TRP303  PHE306  PHE307  ASN310  PHE325  VAL326  ASN329  TRP330  GLY332  TYR333 
 SER336 

> <Gold.Score>
     Score     S(PLP)   S(hbond)     S(cho)   S(metal)  DE(clash)   DE(tors)     intcor
     80.95     -81.16       1.00       0.00       0.00       0.02       1.78       0.36

> <Gold.PLP.Fitness>
80.9462

> <Gold.PLP.PLP>
-81.1612

> <Gold.PLP.part.hbond>
-1.7922

> <Gold.PLP.part.metal>
0.0000

> <Gold.PLP.part.buried>
-10.3058

> <Gold.PLP.part.nonpolar>
-69.5578

> <Gold.PLP.part.repulsive>
0.2756

> <Gold.PLP.ligand.clash>
0.0189

> <Gold.PLP.ligand.torsion>
1.7773

> <Gold.PLP.Chemscore.Hbond>
1.0000

> <Gold.PLP.Chemscore.CHOScore>
0.0000

> <Gold.PLP.Chemscore.Metal>
0.0000

> <Gold.Chemscore.Hbonds>
donor molecule, donor type, donor heavy atom, donor atom, acceptor molecule, acceptor atom, score
      L1  H     5    30       P1  2066  1.00

> <Gold.PLP.Chemscore.Internal.Correction>
0.3585

