#       Name:                C:\Users\porto\OneDrive\projekt\beta2\ligandy\L_4ldo.pdb L_4ldo.pdb 1
#       Creating user name   student
#       Creation time:       Wed Apr 10 10:54:15 2019


#       File generated by GOLD software.
#

@<TRIPOS>MOLECULE
C:\Users\porto\OneDrive\projekt\beta2\ligandy\L_4ldo.pdb L_4ldo.pdb 1|4ldo|mol2|1|dock4
    33    33     1
SMALL
GASTEIGER


@<TRIPOS>ATOM
      1 C1         -29.8163  10.8874   6.8614 C.ar           1 <1>               -0.0143
      2 N1         -31.3121   8.4348   6.0496 N.3            1 <1>               -0.3162
      3 O1         -28.5515  13.7447   4.9467 O.3            1 <1>               -0.5033
      4 C2         -29.8094  12.1141   6.2036 C.ar           1 <1>               -0.0109
      5 O2         -26.3776  12.2936   5.0494 O.3            1 <1>               -0.5033
      6 C3         -28.6351  12.5572   5.6054 C.ar           1 <1>                0.1586
      7 O3         -31.7003  11.5326   8.0438 O.3            1 <1>               -0.3859
      8 C4         -27.4832  11.7871   5.6600 C.ar           1 <1>                0.1582
      9 C5         -27.4829  10.5610   6.3136 C.ar           1 <1>               -0.0162
     10 C6         -28.6575  10.1164   6.9145 C.ar           1 <1>               -0.0524
     11 C7         -30.9880  10.4367   7.4629 C.3            1 <1>                0.0927
     12 C8         -31.8707   9.7416   6.4243 C.3            1 <1>                0.0258
     13 C9         -32.2509   7.7329   5.1640 C.3            1 <1>               -0.0157
     14 HN1        -30.4345   8.5690   5.5685 H              1 <1>                0.1217
     15 HO1        -29.1313  13.7282   4.1821 H              1 <1>                0.2923
     16 H2         -30.7093  12.7096   6.1625 H              1 <1>                0.0659
     17 HO2        -25.6460  11.6803   5.1506 H              1 <1>                0.2923
     18 HO3        -31.1715  11.9239   8.7439 H              1 <1>                0.2103
     19 H5         -26.5802   9.9685   6.3501 H              1 <1>                0.0655
     20 H6         -28.6645   9.1652   7.4251 H              1 <1>                0.0622
     21 H7         -30.7329   9.7241   8.2465 H              1 <1>                0.0656
     22 H81        -32.8716   9.6043   6.8324 H              1 <1>                0.0453
     23 H82        -31.9504  10.3702   5.5375 H              1 <1>                0.0453
     24 H91        -32.5345   8.3889   4.3406 H              1 <1>                0.0388
     25 H92        -31.7746   6.8367   4.7663 H              1 <1>                0.0388
     26 H93        -33.1414   7.4521   5.7269 H              1 <1>                0.0388
     27 ****       -31.1619   7.8899   6.8746 LP             1 <1>                0.0000
     28 ****       -27.6092  13.8941   4.6473 LP             1 <1>                0.0000
     29 ****       -28.8281  14.4855   5.5588 LP             1 <1>                0.0000
     30 ****       -26.1380  13.1698   5.4674 LP             1 <1>                0.0000
     31 ****       -26.5667  12.4289   4.0768 LP             1 <1>                0.0000
     32 ****       -32.5651  11.2042   8.4235 LP             1 <1>                0.0000
     33 ****       -31.8843  12.2202   7.3414 LP             1 <1>                0.0000
@<TRIPOS>BOND
    1    1    4 ar    
    2    1   10 ar    
    3    1   11 1     
    4    2   12 1     
    5    2   13 1     
    6    2   14 1     
    7    3    6 1     
    8    3   15 1     
    9    4    6 ar    
   10    4   16 1     
   11    5    8 1     
   12    5   17 1     
   13    6    8 ar    
   14    7   11 1     
   15    7   18 1     
   16    8    9 ar    
   17    9   10 ar    
   18    9   19 1     
   19   10   20 1     
   20   11   12 1     
   21   11   21 1     
   22   12   22 1     
   23   12   23 1     
   24   13   24 1     
   25   13   25 1     
   26   13   26 1     
   27    2   27 1     
   28    3   28 1     
   29    3   29 1     
   30    5   30 1     
   31    5   31 1     
   32    7   32 1     
   33    7   33 1     
@<TRIPOS>SUBSTRUCTURE
      1 ****           1
@<TRIPOS>SET
LONE_PAIRS      STATIC     ATOMS    <user>   **** ""
7 27 28 29 30 31 32 33
DONOR_HYDROGENS      STATIC     ATOMS    <user>   **** ""
4 14 15 17 18
ATOM$BLUE        STATIC     ATOMS    COLORGROUP SYSTEM
7 27 28 29 30 31 32 33
ATOM$RED        STATIC     ATOMS    COLORGROUP SYSTEM
4 14 15 17 18
@<TRIPOS>COMMENT
> <Gold.Version>
5.6

> <Gold.Id.Protein>
unknown|dok_beta2|pdb

> <Gold.Protein.RotatedTorsions>
[ 4175 4166 4165 4163 ] final -123.60 input -179.98 | X-H torsion
[ 1294 1290 1288 1285 ] final  -66.95 input -179.99 | X-H torsion
[ 4033 4024 4023 4021 ] final   59.62 input  179.98 | X-H torsion
[ 1412 1408 1406 1403 ] final   17.13 input -179.99 | X-H torsion
[ 2830 2825 2824 2821 ] final -160.46 input -179.98 | X-H torsion
[ 2723 2714 2713 2711 ] final -107.15 input -179.98 | X-H torsion
[ 2773 2768 2767 2764 ] final  -23.50 input  180.00 | X-H torsion

> <Gold.Protein.ActiveResidues>
 TRP109  THR110  ASP113  VAL114  VAL117  THR118  PHE193  TYR199  SER203  SER207 
 PHE208  TRP286  PHE289  PHE290  ASN293  TYR308  ASN312  TYR316 

> <Gold.Protein.RotatedAtoms>
  -34.5730    4.5580    2.6430 H   0  0  0  0  0  0  0  0  0  0  0  0  # atno 1294 bound_to 1290
  -27.9798   15.0271    3.2605 H   0  0  0  0  0  0  0  0  0  0  0  0  # atno 1412 bound_to 1408
  -26.1912    8.2691    2.6728 H   0  0  0  0  0  0  0  0  0  0  0  0  # atno 2723 bound_to 2714
  -23.8629   10.9066    3.4507 H   0  0  0  0  0  0  0  0  0  0  0  0  # atno 2773 bound_to 2768
  -25.0451   13.1584    2.6331 H   0  0  0  0  0  0  0  0  0  0  0  0  # atno 2830 bound_to 2825
  -29.3652    6.5511   10.8119 H   0  0  0  0  0  0  0  0  0  0  0  0  # atno 4033 bound_to 4024
  -36.0809    8.9054    8.1361 H   0  0  0  0  0  0  0  0  0  0  0  0  # atno 4175 bound_to 4166
  -37.1662    9.2239    7.0040 LP  0  0  0  0  0  0  0  0  0  0  0  0  # atno 4597 bound_to 4166
  -37.5394    8.2602    8.2684 LP  0  0  0  0  0  0  0  0  0  0  0  0  # atno 4598 bound_to 4166
  -34.0081    3.5424    1.5426 LP  0  0  0  0  0  0  0  0  0  0  0  0  # atno 4603 bound_to 1290
  -35.4018    4.3548    1.2891 LP  0  0  0  0  0  0  0  0  0  0  0  0  # atno 4604 bound_to 1290
  -28.3465    5.3172   10.8562 LP  0  0  0  0  0  0  0  0  0  0  0  0  # atno 4607 bound_to 4024
  -27.9742    6.7313   11.5831 LP  0  0  0  0  0  0  0  0  0  0  0  0  # atno 4608 bound_to 4024
  -26.5301   15.0447    2.5826 LP  0  0  0  0  0  0  0  0  0  0  0  0  # atno 4611 bound_to 1408
  -27.8280   14.4926    1.7597 LP  0  0  0  0  0  0  0  0  0  0  0  0  # atno 4612 bound_to 1408
  -23.5024   12.9791    3.0181 LP  0  0  0  0  0  0  0  0  0  0  0  0  # atno 4613 bound_to 2825
  -23.9769   14.1760    2.0136 LP  0  0  0  0  0  0  0  0  0  0  0  0  # atno 4614 bound_to 2825

> <Gold.Score>
     Fitness  S(hb_ext) S(vdw_ext)  S(hb_int)    S(int)      intcor
     39.81       2.27      28.08       0.00      -1.07      -7.61

> <Gold.Goldscore.Fitness>
39.8142

> <Gold.Goldscore.Internal.Vdw>
-5.9638

> <Gold.Goldscore.Internal.Torsion>
-2.7188

> <Gold.Goldscore.External.Vdw>
28.0823

> <Gold.Goldscore.Internal.HBond>
0.0000

> <Gold.Goldscore.External.HBond>
2.2738

> <Gold.Goldscore.Internal.Correction>
-7.6099

> <Gold.Goldscore.Hbonds>
donor molecule, donor type, donor heavy atom, donor atom, acceptor molecule, acceptor atom, score
      P1  H  1408  1412       L1     3  0.22
      L1  H     3    15       P1  1343  0.91

> <Gold.Goldscore.Internal.Vdw.Weighted>
-5.9638

> <Gold.Goldscore.Internal.Torsion.Weighted>
-2.7188

> <Gold.Goldscore.External.Vdw.Weighted>
38.6131

> <Gold.Goldscore.Internal.HBond.Weighted>
0.0000

> <Gold.Goldscore.External.HBond.Weighted>
2.2738

> <Gold.Goldscore.Internal.Correction.Weighted>
-7.6099

