#       Name:                C:\Users\porto\OneDrive\projekt\beta2\ligandy\L_4qkx.pdb L_4qkx.pdb 1
#       Creating user name   student
#       Creation time:       Mon Apr 01 15:58:16 2019


#       File generated by GOLD software.
#

@<TRIPOS>MOLECULE
C:\Users\porto\OneDrive\projekt\beta2\ligandy\L_4qkx.pdb L_4qkx.pdb 1|4qkx|mol2|1|dock51
    62    63     1
SMALL
GASTEIGER


@<TRIPOS>ATOM
      1 CAA        -32.1629   3.1504   9.6974 C.3            1 <1>                0.0790
      2 CAF        -27.4148  12.6020   5.1062 C.ar           1 <1>               -0.0162
      3 CAG        -33.8684   7.0293   7.2060 C.ar           1 <1>               -0.0548
      4 CAH        -28.6347  12.4596   5.7555 C.ar           1 <1>               -0.0524
      5 CAI        -34.9650   6.3753   7.7625 C.ar           1 <1>               -0.0160
      6 CAJ        -27.9148  10.3977   6.7870 C.ar           1 <1>               -0.0109
      7 CAK        -32.3937   5.5762   8.4437 C.ar           1 <1>               -0.0131
      8 CAL        -38.2051   4.6523   9.3330 C.3            1 <1>                0.0249
      9 CAM        -31.4392   8.7013   7.3991 C.3            1 <1>               -0.0000
     10 CAN        -36.9247   5.4932   9.4144 C.3            1 <1>                0.0985
     11 CAO        -31.4242   7.2131   7.0193 C.3            1 <1>               -0.0150
     12 CAP        -31.3104  11.0663   6.2597 C.3            1 <1>                0.0261
     13 CAT        -26.4491  11.6290   5.3064 C.ar           1 <1>                0.1582
     14 CAU        -26.6949  10.5399   6.1357 C.ar           1 <1>                0.1586
     15 CAV        -32.5769   6.6322   7.5558 C.ar           1 <1>               -0.0425
     16 CAW        -28.8881  11.3646   6.5762 C.ar           1 <1>               -0.0143
     17 CAX        -34.7672   5.3305   8.6544 C.ar           1 <1>                0.1619
     18 CAY        -33.4822   4.9243   8.9888 C.ar           1 <1>                0.1618
     19 CAZ        -30.1215  11.2764   7.2111 C.3            1 <1>                0.0927
     20 NAQ        -31.3804   9.6056   6.2420 N.3            1 <1>               -0.3129
     21 OAB        -25.2291  11.6926   4.7096 O.3            1 <1>               -0.5033
     22 OAC        -25.6902   9.6326   6.2734 O.3            1 <1>               -0.5033
     23 OAD        -30.3820  12.4030   8.0635 O.3            1 <1>               -0.3859
     24 OAR        -33.3651   3.9079   9.8840 O.3            1 <1>               -0.4914
     25 OAS        -35.7837   4.6471   9.2471 O.3            1 <1>               -0.4875
     26 SAE        -38.3402   3.4786  10.7272 S.3            1 <1>               -0.1749
     27 HAA1       -32.1176   2.3515  10.4372 H              1 <1>                0.0660
     28 HAA2       -32.1562   2.7185   8.6967 H              1 <1>                0.0660
     29 HAA3       -31.2989   3.8041   9.8162 H              1 <1>                0.0660
     30 HAF        -27.2397  13.4542   4.4655 H              1 <1>                0.0655
     31 HAG        -34.0197   7.8391   6.5082 H              1 <1>                0.0621
     32 HAH        -29.4045  13.2059   5.6271 H              1 <1>                0.0622
     33 HAI        -35.9670   6.6809   7.5001 H              1 <1>                0.0655
     34 HAJ        -28.0843   9.5520   7.4361 H              1 <1>                0.0659
     35 HAK        -31.3926   5.2674   8.7054 H              1 <1>                0.0658
     36 HAL1       -39.0732   5.3120   9.3289 H              1 <1>                0.0407
     37 HAL2       -38.2177   4.1017   8.3927 H              1 <1>                0.0407
     38 HAM1       -30.6030   8.9130   8.0665 H              1 <1>                0.0427
     39 HAM2       -32.3348   8.9167   7.9813 H              1 <1>                0.0427
     40 HAN1       -36.8739   5.9840  10.3859 H              1 <1>                0.0705
     41 HAN2       -36.9350   6.2481   8.6286 H              1 <1>                0.0705
     42 HAO1       -30.5435   6.7378   7.4513 H              1 <1>                0.0325
     43 HAO2       -31.4406   7.1151   5.9341 H              1 <1>                0.0325
     44 HAP1       -32.2130  11.4607   6.7258 H              1 <1>                0.0453
     45 HAP2       -31.0386  11.4216   5.2661 H              1 <1>                0.0453
     46 HAZ        -30.0792  10.3994   7.8563 H              1 <1>                0.0656
     47 HNAQ       -30.5579   9.3990   5.6936 H              1 <1>                0.1220
     48 HOAB       -24.5683  11.9488   5.3573 H              1 <1>                0.2923
     49 HOAC       -24.9636   9.8680   5.6918 H              1 <1>                0.2923
     50 HOAD       -31.2800  12.7104   7.9230 H              1 <1>                0.2103
     51 HSAE       -37.6241   3.9298  11.7608 H              1 <1>                0.1017
     52 ****       -32.3152   9.4023   5.9506 LP             1 <1>                0.0000
     53 ****       -25.2533  12.3686   3.9731 LP             1 <1>                0.0000
     54 ****       -24.9957  10.7965   4.3320 LP             1 <1>                0.0000
     55 ****       -26.0278   8.7225   6.0331 LP             1 <1>                0.0000
     56 ****       -25.3710   9.6302   7.2211 LP             1 <1>                0.0000
     57 ****       -29.7403  13.1391   7.8482 LP             1 <1>                0.0000
     58 ****       -30.2687  12.1309   9.0191 LP             1 <1>                0.0000
     59 ****       -33.3625   4.2920  10.8073 LP             1 <1>                0.0000
     60 ****       -34.1494   3.2963   9.7797 LP             1 <1>                0.0000
     61 ****       -36.0338   3.8666   8.6742 LP             1 <1>                0.0000
     62 ****       -35.4823   4.3200  10.1428 LP             1 <1>                0.0000
@<TRIPOS>BOND
    1    1   24 1     
    2    1   27 1     
    3    1   28 1     
    4    1   29 1     
    5    2    4 ar    
    6    2   13 ar    
    7    2   30 1     
    8    3    5 ar    
    9    3   15 ar    
   10    3   31 1     
   11    4   16 ar    
   12    4   32 1     
   13    5   17 ar    
   14    5   33 1     
   15    6   14 ar    
   16    6   16 ar    
   17    6   34 1     
   18    7   18 ar    
   19    7   15 ar    
   20    7   35 1     
   21    8   26 1     
   22    8   10 1     
   23    8   36 1     
   24    8   37 1     
   25    9   11 1     
   26    9   20 1     
   27    9   38 1     
   28    9   39 1     
   29   10   25 1     
   30   10   40 1     
   31   10   41 1     
   32   11   15 1     
   33   11   42 1     
   34   11   43 1     
   35   12   20 1     
   36   12   19 1     
   37   12   44 1     
   38   12   45 1     
   39   13   21 1     
   40   13   14 ar    
   41   14   22 1     
   42   16   19 1     
   43   17   25 1     
   44   17   18 ar    
   45   18   24 1     
   46   19   23 1     
   47   19   46 1     
   48   20   47 1     
   49   21   48 1     
   50   22   49 1     
   51   23   50 1     
   52   26   51 1     
   53   20   52 1     
   54   21   53 1     
   55   21   54 1     
   56   22   55 1     
   57   22   56 1     
   58   23   57 1     
   59   23   58 1     
   60   24   59 1     
   61   24   60 1     
   62   25   61 1     
   63   25   62 1     
@<TRIPOS>SUBSTRUCTURE
      1 ****           1
@<TRIPOS>SET
LONE_PAIRS      STATIC     ATOMS    <user>   **** ""
11 52 53 54 55 56 57 58 59 60 61 62
DONOR_HYDROGENS      STATIC     ATOMS    <user>   **** ""
4 47 48 49 50
ATOM$BLUE        STATIC     ATOMS    COLORGROUP SYSTEM
11 52 53 54 55 56 57 58 59 60 61 62
ATOM$RED        STATIC     ATOMS    COLORGROUP SYSTEM
4 47 48 49 50
@<TRIPOS>COMMENT
> <Gold.Version>
5.5

> <Gold.Id.Protein>
unknown|dok_beta2|pdb

> <Gold.Protein.RotatedTorsions>
[ 4175 4166 4165 4163 ] final -147.34 input -179.98 | X-H torsion
[ 1294 1290 1288 1285 ] final   64.97 input -179.99 | X-H torsion
[ 4033 4024 4023 4021 ] final   74.43 input  179.98 | X-H torsion
[ 1412 1408 1406 1403 ] final  117.83 input -179.99 | X-H torsion
[ 2830 2825 2824 2821 ] final  147.49 input -179.98 | X-H torsion
[ 2723 2714 2713 2711 ] final    3.77 input -179.98 | X-H torsion
[ 2773 2768 2767 2764 ] final  -79.54 input  180.00 | X-H torsion

> <Gold.Protein.ActiveResidues>
 TRP109  THR110  ASP113  VAL114  VAL117  THR118  PHE193  TYR199  SER203  SER207 
 PHE208  TRP286  PHE289  PHE290  ASN293  TYR308  ASN312  TYR316 

> <Gold.Protein.RotatedAtoms>
  -35.2852    4.2350    1.1869 H   0  0  0  0  0  0  0  0  0  0  0  0  # atno 1294 bound_to 1290
  -28.0641   14.5343    1.9599 H   0  0  0  0  0  0  0  0  0  0  0  0  # atno 1412 bound_to 1408
  -26.1698    7.9210    1.2234 H   0  0  0  0  0  0  0  0  0  0  0  0  # atno 2723 bound_to 2714
  -24.3543   10.3804    3.9026 H   0  0  0  0  0  0  0  0  0  0  0  0  # atno 2773 bound_to 2768
  -24.5078   12.7437    3.0448 H   0  0  0  0  0  0  0  0  0  0  0  0  # atno 2830 bound_to 2825
  -29.2863    6.7399   10.9240 H   0  0  0  0  0  0  0  0  0  0  0  0  # atno 4033 bound_to 4024
  -36.0687    9.1119    7.8265 H   0  0  0  0  0  0  0  0  0  0  0  0  # atno 4175 bound_to 4166
  -37.4932    9.0389    7.1010 LP  0  0  0  0  0  0  0  0  0  0  0  0  # atno 4597 bound_to 4166
  -37.2252    8.2300    8.4941 LP  0  0  0  0  0  0  0  0  0  0  0  0  # atno 4598 bound_to 4166
  -34.7440    4.6530    2.6339 LP  0  0  0  0  0  0  0  0  0  0  0  0  # atno 4603 bound_to 1290
  -33.9236    3.5807    1.7153 LP  0  0  0  0  0  0  0  0  0  0  0  0  # atno 4604 bound_to 1290
  -28.5632    5.3229   10.7465 LP  0  0  0  0  0  0  0  0  0  0  0  0  # atno 4607 bound_to 4024
  -27.8397    6.5291   11.5761 LP  0  0  0  0  0  0  0  0  0  0  0  0  # atno 4608 bound_to 4024
  -27.7210   15.1179    3.4100 LP  0  0  0  0  0  0  0  0  0  0  0  0  # atno 4611 bound_to 1408
  -26.5493   14.9329    2.2877 LP  0  0  0  0  0  0  0  0  0  0  0  0  # atno 4612 bound_to 1408
  -23.2638   13.6256    2.5600 LP  0  0  0  0  0  0  0  0  0  0  0  0  # atno 4613 bound_to 2825
  -24.7757   13.9619    2.0426 LP  0  0  0  0  0  0  0  0  0  0  0  0  # atno 4614 bound_to 2825

> <Gold.Score>
     Score     S(PLP)   S(hbond)     S(cho)   S(metal)  DE(clash)   DE(tors)     intcor
     72.02     -68.07       1.78       0.00       0.00       1.78       1.86       4.10

> <Gold.PLP.Fitness>
72.0214

> <Gold.PLP.PLP>
-68.0650

> <Gold.PLP.part.hbond>
-3.0000

> <Gold.PLP.part.metal>
0.0000

> <Gold.PLP.part.buried>
-3.2221

> <Gold.PLP.part.nonpolar>
-62.9640

> <Gold.PLP.part.repulsive>
0.0705

> <Gold.PLP.ligand.clash>
1.7795

> <Gold.PLP.ligand.torsion>
1.8588

> <Gold.PLP.Chemscore.Hbond>
1.7840

> <Gold.PLP.Chemscore.CHOScore>
0.0000

> <Gold.PLP.Chemscore.Metal>
0.0000

> <Gold.Chemscore.Hbonds>
donor molecule, donor type, donor heavy atom, donor atom, acceptor molecule, acceptor atom, score
      P1  H  2825  2830       L1    21  0.78
      P1  H  2768  2773       L1    21  1.00

> <Gold.PLP.Chemscore.Internal.Correction>
4.1015

