#       Name:                C:\Users\porto\OneDrive\projekt\beta2\ligandy\L_4ldl.pdb L_4ldl.pdb 1
#       Creating user name   student
#       Creation time:       Mon Apr 08 15:45:27 2019


#       File generated by GOLD software.
#

@<TRIPOS>MOLECULE
C:\Users\porto\OneDrive\projekt\beta2\ligandy\L_4ldl.pdb L_4ldl.pdb 1|4ldl|mol2|1|dock2
    55    56     1
SMALL
GASTEIGER


@<TRIPOS>ATOM
      1 CAA        -32.4458   6.8832   5.4857 C.3            1 <1>               -0.0467
      2 CAB        -32.6499   7.3705   6.9168 C.3            1 <1>                0.0176
      3 CAC        -31.6869   6.6604   7.8602 C.3            1 <1>               -0.0467
      4 CAD        -34.1009   7.1924   7.3700 C.3            1 <1>               -0.0098
      5 CAE        -34.4886   5.7463   7.6123 C.ar           1 <1>               -0.0454
      6 CAF        -34.3448   4.7860   6.6136 C.ar           1 <1>               -0.0551
      7 CAG        -34.7124   3.4673   6.8494 C.ar           1 <1>               -0.0199
      8 CAH        -35.2401   3.1023   8.0841 C.ar           1 <1>                0.1169
      9 CAJ        -35.3954   4.0593   9.0797 C.ar           1 <1>               -0.0199
     10 CAK        -35.0277   5.3779   8.8417 C.ar           1 <1>               -0.0551
     11 CAM        -31.0843   9.2166   6.3291 C.3            1 <1>                0.0266
     12 CAN        -30.6484  10.5667   6.8848 C.3            1 <1>                0.0927
     13 CAP        -29.3067  10.8805   6.3424 C.ar           1 <1>               -0.0143
     14 CAQ        -28.3254   9.9005   6.2508 C.ar           1 <1>               -0.0524
     15 CAR        -27.0736  10.2225   5.7367 C.ar           1 <1>               -0.0162
     16 CAS        -26.8052  11.5182   5.3087 C.ar           1 <1>                0.1582
     17 CAU        -27.7851  12.4907   5.3947 C.ar           1 <1>                0.1586
     18 CAW        -29.0356  12.1731   5.9098 C.ar           1 <1>               -0.0109
     19 NAL        -32.3246   8.7818   6.9426 N.3            1 <1>               -0.3080
     20 OAI        -35.6029   1.8101   8.3163 O.3            1 <1>               -0.5068
     21 OAO        -31.6062  11.5724   6.5355 O.3            1 <1>               -0.3859
     22 OAT        -25.5787  11.8327   4.8030 O.3            1 <1>               -0.5033
     23 OAV        -27.5256  13.7602   4.9759 O.3            1 <1>               -0.5033
     24 HAA1       -33.1405   7.3991   4.8230 H              1 <1>                0.0247
     25 HAA2       -31.4232   7.0917   5.1730 H              1 <1>                0.0247
     26 HAA3       -32.6278   5.8097   5.4377 H              1 <1>                0.0247
     27 HAC1       -31.8437   7.0181   8.8774 H              1 <1>                0.0247
     28 HAC2       -31.8657   5.5862   7.8218 H              1 <1>                0.0247
     29 HAC3       -30.6611   6.8681   7.5571 H              1 <1>                0.0247
     30 HAD1       -34.7679   7.6255   6.6253 H              1 <1>                0.0331
     31 HAD2       -34.2695   7.7692   8.2794 H              1 <1>                0.0331
     32 HAF        -33.9460   5.0650   5.6495 H              1 <1>                0.0621
     33 HAG        -34.5887   2.7252   6.0739 H              1 <1>                0.0654
     34 HAJ        -35.8028   3.7785  10.0399 H              1 <1>                0.0654
     35 HAK        -35.1615   6.1185   9.6159 H              1 <1>                0.0621
     36 HAM1       -30.3060   8.4769   6.5195 H              1 <1>                0.0453
     37 HAM2       -31.2206   9.2955   5.2509 H              1 <1>                0.0453
     38 HAN        -30.5854  10.4999   7.9707 H              1 <1>                0.0656
     39 HAQ        -28.5361   8.8936   6.5781 H              1 <1>                0.0622
     40 HAR        -26.3062   9.4652   5.6688 H              1 <1>                0.0655
     41 HAW        -29.7986  12.9346   5.9737 H              1 <1>                0.0659
     42 HNAL       -33.0454   9.3031   6.4643 H              1 <1>                0.1225
     43 HOAI       -35.6326   1.3310   7.4850 H              1 <1>                0.2921
     44 HOAO       -32.4270  11.1536   6.2655 H              1 <1>                0.2103
     45 HOAT       -25.0363  12.2184   5.4949 H              1 <1>                0.2923
     46 HOAV       -27.5774  13.7985   4.0182 H              1 <1>                0.2923
     47 ****       -32.2354   8.9518   7.9240 LP             1 <1>                0.0000
     48 ****       -36.5060   1.7895   8.7452 LP             1 <1>                0.0000
     49 ****       -34.9352   1.3808   8.9245 LP             1 <1>                0.0000
     50 ****       -31.2500  12.1242   5.7815 LP             1 <1>                0.0000
     51 ****       -31.7764  12.1596   7.3269 LP             1 <1>                0.0000
     52 ****       -25.6844  12.4902   4.0569 LP             1 <1>                0.0000
     53 ****       -25.1383  11.0042   4.4572 LP             1 <1>                0.0000
     54 ****       -26.6083  14.0275   5.2710 LP             1 <1>                0.0000
     55 ****       -28.1984  14.3856   5.3712 LP             1 <1>                0.0000
@<TRIPOS>BOND
    1    1    2 1     
    2    1   24 1     
    3    1   25 1     
    4    1   26 1     
    5    2    3 1     
    6    2    4 1     
    7    2   19 1     
    8    3   27 1     
    9    3   28 1     
   10    3   29 1     
   11    4    5 1     
   12    4   30 1     
   13    4   31 1     
   14    5    6 ar    
   15    5   10 ar    
   16    6    7 ar    
   17    6   32 1     
   18    7    8 ar    
   19    7   33 1     
   20    8    9 ar    
   21    8   20 1     
   22    9   10 ar    
   23    9   34 1     
   24   10   35 1     
   25   11   12 1     
   26   11   19 1     
   27   11   36 1     
   28   11   37 1     
   29   12   13 1     
   30   12   21 1     
   31   12   38 1     
   32   13   14 ar    
   33   13   18 ar    
   34   14   15 ar    
   35   14   39 1     
   36   15   16 ar    
   37   15   40 1     
   38   16   17 ar    
   39   16   22 1     
   40   17   18 ar    
   41   17   23 1     
   42   18   41 1     
   43   19   42 1     
   44   20   43 1     
   45   21   44 1     
   46   22   45 1     
   47   23   46 1     
   48   19   47 1     
   49   20   48 1     
   50   20   49 1     
   51   21   50 1     
   52   21   51 1     
   53   22   52 1     
   54   22   53 1     
   55   23   54 1     
   56   23   55 1     
@<TRIPOS>SUBSTRUCTURE
      1 ****           1
@<TRIPOS>SET
LONE_PAIRS      STATIC     ATOMS    <user>   **** ""
9 47 48 49 50 51 52 53 54 55
DONOR_HYDROGENS      STATIC     ATOMS    <user>   **** ""
5 42 43 44 45 46
ATOM$BLUE        STATIC     ATOMS    COLORGROUP SYSTEM
9 47 48 49 50 51 52 53 54 55
ATOM$RED        STATIC     ATOMS    COLORGROUP SYSTEM
5 42 43 44 45 46
@<TRIPOS>COMMENT
> <Gold.Version>
5.5

> <Gold.Id.Protein>
unknown|dok_beta2|pdb

> <Gold.Protein.RotatedTorsions>
[ 4175 4166 4165 4163 ] final -138.28 input -179.98 | X-H torsion
[ 1294 1290 1288 1285 ] final   91.65 input -179.99 | X-H torsion
[ 4033 4024 4023 4021 ] final  109.26 input  179.98 | X-H torsion
[ 1412 1408 1406 1403 ] final -162.17 input -179.99 | X-H torsion
[ 2830 2825 2824 2821 ] final  155.98 input -179.98 | X-H torsion
[ 2723 2714 2713 2711 ] final -101.61 input -179.98 | X-H torsion
[ 2773 2768 2767 2764 ] final  -69.68 input  180.00 | X-H torsion

> <Gold.Protein.ActiveResidues>
 TRP109  THR110  ASP113  VAL114  VAL117  THR118  PHE193  TYR199  SER203  SER207 
 PHE208  TRP286  PHE289  PHE290  ASN293  TYR308  ASN312  TYR316 

> <Gold.Protein.RotatedAtoms>
  -35.0141    3.9606    1.0271 H   0  0  0  0  0  0  0  0  0  0  0  0  # atno 1294 bound_to 1290
  -26.9213   14.7066    1.8280 H   0  0  0  0  0  0  0  0  0  0  0  0  # atno 1412 bound_to 1408
  -26.1483    8.3106    2.6089 H   0  0  0  0  0  0  0  0  0  0  0  0  # atno 2723 bound_to 2714
  -24.2645   10.5044    3.8756 H   0  0  0  0  0  0  0  0  0  0  0  0  # atno 2773 bound_to 2768
  -24.6280   12.7789    2.9971 H   0  0  0  0  0  0  0  0  0  0  0  0  # atno 2830 bound_to 2825
  -28.9300    7.0254   11.2160 H   0  0  0  0  0  0  0  0  0  0  0  0  # atno 4033 bound_to 4024
  -36.0559    9.0375    7.9479 H   0  0  0  0  0  0  0  0  0  0  0  0  # atno 4175 bound_to 4166
  -37.3772    9.1163    7.0486 LP  0  0  0  0  0  0  0  0  0  0  0  0  # atno 4597 bound_to 4166
  -37.3545    8.2302    8.4200 LP  0  0  0  0  0  0  0  0  0  0  0  0  # atno 4598 bound_to 4166
  -35.0968    4.7678    2.4066 LP  0  0  0  0  0  0  0  0  0  0  0  0  # atno 4603 bound_to 1290
  -33.8534    3.7518    2.1091 LP  0  0  0  0  0  0  0  0  0  0  0  0  # atno 4604 bound_to 1290
  -29.0495    5.5594   10.5847 LP  0  0  0  0  0  0  0  0  0  0  0  0  # atno 4607 bound_to 4024
  -27.7245    5.9952   11.4337 LP  0  0  0  0  0  0  0  0  0  0  0  0  # atno 4608 bound_to 4024
  -28.3737   14.6579    2.4982 LP  0  0  0  0  0  0  0  0  0  0  0  0  # atno 4611 bound_to 1408
  -27.0874   15.2134    3.3369 LP  0  0  0  0  0  0  0  0  0  0  0  0  # atno 4612 bound_to 1408
  -23.2521   13.5164    2.6463 LP  0  0  0  0  0  0  0  0  0  0  0  0  # atno 4613 bound_to 2825
  -24.6621   14.0345    2.0059 LP  0  0  0  0  0  0  0  0  0  0  0  0  # atno 4614 bound_to 2825

> <Gold.Score>
     Score     S(PLP)   S(hbond)     S(cho)   S(metal)  DE(clash)   DE(tors)     intcor
     74.25     -66.46       3.27       0.00       0.00       1.34       0.78       0.88

> <Gold.PLP.Fitness>
74.2529

> <Gold.PLP.PLP>
-66.4552

> <Gold.PLP.part.hbond>
-5.7979

> <Gold.PLP.part.metal>
0.0000

> <Gold.PLP.part.buried>
-5.7904

> <Gold.PLP.part.nonpolar>
-55.5640

> <Gold.PLP.part.repulsive>
0.0000

> <Gold.PLP.ligand.clash>
1.3356

> <Gold.PLP.ligand.torsion>
0.7763

> <Gold.PLP.Chemscore.Hbond>
3.2680

> <Gold.PLP.Chemscore.CHOScore>
0.0000

> <Gold.PLP.Chemscore.Metal>
0.0000

> <Gold.Chemscore.Hbonds>
donor molecule, donor type, donor heavy atom, donor atom, acceptor molecule, acceptor atom, score
      L1  H    21    44       P1  1334  1.00
      L1  H    23    46       P1  1408  0.83
      P1  H  2825  2830       L1    22  0.44
      P1  H  2768  2773       L1    22  1.00

> <Gold.PLP.Chemscore.Internal.Correction>
0.8817

