#       Name:                C:\Users\porto\OneDrive\projekt\beta2\ligandy\L_4lde.pdb L_4lde.pdb 1
#       Creating user name   student
#       Creation time:       Mon Apr 08 15:45:03 2019


#       File generated by GOLD software.
#

@<TRIPOS>MOLECULE
C:\Users\porto\OneDrive\projekt\beta2\ligandy\L_4lde.pdb L_4lde.pdb 1|4lde|mol2|1|dock9
    62    64     1
SMALL
GASTEIGER


@<TRIPOS>ATOM
      1 CAA        -36.2448   5.7153  10.8723 C.3            1 <1>               -0.0395
      2 CAB        -33.8599   6.1667   6.0357 C.3            1 <1>               -0.0467
      3 CAC        -32.7368   5.8560   8.2422 C.3            1 <1>               -0.0467
      4 CAG        -35.4775   2.2124   9.7190 C.ar           1 <1>               -0.0615
      5 CAH        -35.0213   2.4184   8.4221 C.ar           1 <1>               -0.0615
      6 CAI        -35.8702   3.2872  10.5054 C.ar           1 <1>               -0.0586
      7 CAJ        -34.9501   3.7033   7.9160 C.ar           1 <1>               -0.0583
      8 CAK        -29.9427  12.3892   6.4442 C.ar           1 <1>               -0.0178
      9 CAL        -31.0240  11.7134   7.0034 C.ar           1 <1>               -0.0490
     10 CAM        -28.1625   8.0509   7.9684 C.3            1 <1>                0.1656
     11 CAN        -32.4786   8.5150   7.0864 C.3            1 <1>                0.0267
     12 CAO        -35.2653   6.1745   8.1046 C.3            1 <1>               -0.0096
     13 CAS        -27.0765   8.7169   7.1447 C.2            1 <1>                0.2550
     14 CAT        -35.8070   4.5743   9.9930 C.ar           1 <1>               -0.0472
     15 CAU        -28.7337  11.7330   6.2465 C.ar           1 <1>                0.1416
     16 CAV        -35.3596   4.7838   8.6931 C.ar           1 <1>               -0.0427
     17 CAW        -30.9038  10.3765   7.3668 C.ar           1 <1>                0.0258
     18 CAX        -28.6063  10.4084   6.6136 C.ar           1 <1>                0.1180
     19 CAY        -29.6796   9.7324   7.1702 C.ar           1 <1>                0.1515
     20 CAZ        -32.0727   9.6818   7.9705 C.3            1 <1>                0.0960
     21 NAP        -33.7171   7.9593   7.5891 N.3            1 <1>               -0.3080
     22 NAQ        -27.4319   9.7671   6.4110 N.am           1 <1>               -0.2769
     23 OAD        -25.9301   8.2959   7.1649 O.2            1 <1>               -0.2717
     24 OAE        -27.6691  12.3863   5.6995 O.3            1 <1>               -0.5048
     25 OAF        -33.2117  10.5496   8.0909 O.3            1 <1>               -0.3858
     26 OAR        -29.4628   8.4205   7.4961 O.3            1 <1>               -0.4804
     27 CBA        -33.8982   6.5247   7.5161 C.3            1 <1>                0.0176
     28 HAA1       -36.1361   6.6543  10.3305 H              1 <1>                0.0278
     29 HAA2       -37.2884   5.5774  11.1549 H              1 <1>                0.0278
     30 HAA3       -35.6266   5.7409  11.7697 H              1 <1>                0.0278
     31 HAB1       -34.6928   6.6478   5.5229 H              1 <1>                0.0247
     32 HAB2       -32.9202   6.5097   5.6023 H              1 <1>                0.0247
     33 HAB3       -33.9392   5.0855   5.9205 H              1 <1>                0.0247
     34 HAC1       -32.7707   6.1164   9.3001 H              1 <1>                0.0247
     35 HAC2       -32.8135   4.7744   8.1318 H              1 <1>                0.0247
     36 HAC3       -31.7944   6.1987   7.8145 H              1 <1>                0.0247
     37 HAG        -35.5286   1.2112  10.1213 H              1 <1>                0.0618
     38 HAH        -34.7236   1.5770   7.8140 H              1 <1>                0.0618
     39 HAI        -36.2234   3.1192  11.5122 H              1 <1>                0.0620
     40 HAJ        -34.5768   3.8694   6.9164 H              1 <1>                0.0620
     41 HAK        -30.0415  13.4273   6.1624 H              1 <1>                0.0655
     42 HAL        -31.9614  12.2274   7.1563 H              1 <1>                0.0623
     43 HAM1       -28.0582   8.3460   9.0123 H              1 <1>                0.0795
     44 HAM2       -28.0499   6.9682   7.9108 H              1 <1>                0.0795
     45 HAN1       -31.7010   7.7513   7.1128 H              1 <1>                0.0453
     46 HAN2       -32.6265   8.8675   6.0651 H              1 <1>                0.0453
     47 HAO1       -35.5282   6.9076   8.8673 H              1 <1>                0.0331
     48 HAO2       -36.0297   6.2947   7.3372 H              1 <1>                0.0331
     49 HAZ        -31.7989   9.3075   8.9572 H              1 <1>                0.0657
     50 HNAP       -33.8150   8.1864   8.5685 H              1 <1>                0.1225
     51 HNAQ       -26.8196  10.1040   5.6815 H              1 <1>                0.1551
     52 HOAE       -27.8105  13.3338   5.7578 H              1 <1>                0.2922
     53 HOAF       -33.3907  10.9632   7.2426 H              1 <1>                0.2103
     54 ****       -34.3946   8.3679   6.9776 LP             1 <1>                0.0000
     55 ****       -25.6983   7.5034   7.7289 LP             1 <1>                0.0000
     56 ****       -25.2233   8.7438   6.6173 LP             1 <1>                0.0000
     57 ****       -27.5732  12.1221   4.7398 LP             1 <1>                0.0000
     58 ****       -26.8367  12.1424   6.1971 LP             1 <1>                0.0000
     59 ****       -33.0217  11.2561   8.7726 LP             1 <1>                0.0000
     60 ****       -34.0081  10.0165   8.3764 LP             1 <1>                0.0000
     61 ****       -30.1186   8.1796   8.2116 LP             1 <1>                0.0000
     62 ****       -29.6477   7.8763   6.6777 LP             1 <1>                0.0000
@<TRIPOS>BOND
    1    1   14 1     
    2    1   28 1     
    3    1   29 1     
    4    1   30 1     
    5    2   27 1     
    6    2   31 1     
    7    2   32 1     
    8    2   33 1     
    9    3   27 1     
   10    3   34 1     
   11    3   35 1     
   12    3   36 1     
   13    4    5 ar    
   14    4    6 ar    
   15    4   37 1     
   16    5    7 ar    
   17    5   38 1     
   18    6   14 ar    
   19    6   39 1     
   20    7   16 ar    
   21    7   40 1     
   22    8    9 ar    
   23    8   15 ar    
   24    8   41 1     
   25    9   17 ar    
   26    9   42 1     
   27   10   13 1     
   28   10   26 1     
   29   10   43 1     
   30   10   44 1     
   31   11   20 1     
   32   11   21 1     
   33   11   45 1     
   34   11   46 1     
   35   12   16 1     
   36   12   27 1     
   37   12   47 1     
   38   12   48 1     
   39   13   22 am    
   40   13   23 2     
   41   14   16 ar    
   42   15   18 ar    
   43   15   24 1     
   44   17   19 ar    
   45   17   20 1     
   46   18   19 ar    
   47   18   22 1     
   48   19   26 1     
   49   20   25 1     
   50   20   49 1     
   51   21   27 1     
   52   21   50 1     
   53   22   51 1     
   54   24   52 1     
   55   25   53 1     
   56   21   54 1     
   57   23   55 1     
   58   23   56 1     
   59   24   57 1     
   60   24   58 1     
   61   25   59 1     
   62   25   60 1     
   63   26   61 1     
   64   26   62 1     
@<TRIPOS>SUBSTRUCTURE
      1 ****           1
@<TRIPOS>SET
LONE_PAIRS      STATIC     ATOMS    <user>   **** ""
9 54 55 56 57 58 59 60 61 62
DONOR_HYDROGENS      STATIC     ATOMS    <user>   **** ""
4 50 51 52 53
ATOM$BLUE        STATIC     ATOMS    COLORGROUP SYSTEM
9 54 55 56 57 58 59 60 61 62
ATOM$RED        STATIC     ATOMS    COLORGROUP SYSTEM
4 50 51 52 53
@<TRIPOS>COMMENT
> <Gold.Version>
5.5

> <Gold.Id.Protein>
unknown|dok_beta2|pdb

> <Gold.Protein.RotatedTorsions>
[ 4175 4166 4165 4163 ] final  -59.53 input -179.98 | X-H torsion
[ 1294 1290 1288 1285 ] final  -28.78 input -179.99 | X-H torsion
[ 4033 4024 4023 4021 ] final  146.97 input  179.98 | X-H torsion
[ 1412 1408 1406 1403 ] final   44.34 input -179.99 | X-H torsion
[ 2830 2825 2824 2821 ] final   45.75 input -179.98 | X-H torsion
[ 2723 2714 2713 2711 ] final  -40.03 input -179.98 | X-H torsion
[ 2773 2768 2767 2764 ] final  -62.55 input  180.00 | X-H torsion

> <Gold.Protein.ActiveResidues>
 TRP109  THR110  ASP113  VAL114  VAL117  THR118  PHE193  TYR199  SER203  SER207 
 PHE208  TRP286  PHE289  PHE290  ASN293  TYR308  ASN312  TYR316 

> <Gold.Protein.RotatedAtoms>
  -35.0679    4.7518    2.3830 H   0  0  0  0  0  0  0  0  0  0  0  0  # atno 1294 bound_to 1290
  -28.2505   14.8693    2.9724 H   0  0  0  0  0  0  0  0  0  0  0  0  # atno 1412 bound_to 1408
  -25.9518    8.3417    1.7040 H   0  0  0  0  0  0  0  0  0  0  0  0  # atno 2723 bound_to 2714
  -24.1982   10.5883    3.8405 H   0  0  0  0  0  0  0  0  0  0  0  0  # atno 2773 bound_to 2768
  -23.3032   13.3981    2.7453 H   0  0  0  0  0  0  0  0  0  0  0  0  # atno 2830 bound_to 2825
  -28.4070    7.0013   11.4769 H   0  0  0  0  0  0  0  0  0  0  0  0  # atno 4033 bound_to 4024
  -36.7386    8.3685    8.5835 H   0  0  0  0  0  0  0  0  0  0  0  0  # atno 4175 bound_to 4166
  -36.2479    9.3145    7.3897 LP  0  0  0  0  0  0  0  0  0  0  0  0  # atno 4597 bound_to 4166
  -37.7722    8.7293    7.4162 LP  0  0  0  0  0  0  0  0  0  0  0  0  # atno 4598 bound_to 4166
  -33.8532    3.7482    2.1028 LP  0  0  0  0  0  0  0  0  0  0  0  0  # atno 4603 bound_to 1290
  -35.0409    3.9470    0.9999 LP  0  0  0  0  0  0  0  0  0  0  0  0  # atno 4604 bound_to 1290
  -29.3785    6.0716   10.6085 LP  0  0  0  0  0  0  0  0  0  0  0  0  # atno 4607 bound_to 4024
  -27.9403    5.5081   11.1382 LP  0  0  0  0  0  0  0  0  0  0  0  0  # atno 4608 bound_to 4024
  -26.6774   15.1632    2.9838 LP  0  0  0  0  0  0  0  0  0  0  0  0  # atno 4611 bound_to 1408
  -27.3986   14.5385    1.6586 LP  0  0  0  0  0  0  0  0  0  0  0  0  # atno 4612 bound_to 1408
  -24.5189   14.1014    1.9787 LP  0  0  0  0  0  0  0  0  0  0  0  0  # atno 4613 bound_to 2825
  -24.7765   12.8038    2.9361 LP  0  0  0  0  0  0  0  0  0  0  0  0  # atno 4614 bound_to 2825

> <Gold.Score>
     Score     S(PLP)   S(hbond)     S(cho)   S(metal)  DE(clash)   DE(tors)     intcor
     81.01     -74.73       2.99       0.00       0.00       1.58       0.88       0.65

> <Gold.PLP.Fitness>
81.0093

> <Gold.PLP.PLP>
-74.7293

> <Gold.PLP.part.hbond>
-4.8578

> <Gold.PLP.part.metal>
0.0000

> <Gold.PLP.part.buried>
-9.7310

> <Gold.PLP.part.nonpolar>
-61.9359

> <Gold.PLP.part.repulsive>
0.0700

> <Gold.PLP.ligand.clash>
1.5825

> <Gold.PLP.ligand.torsion>
0.8799

> <Gold.PLP.Chemscore.Hbond>
2.9920

> <Gold.PLP.Chemscore.CHOScore>
0.0000

> <Gold.PLP.Chemscore.Metal>
0.0000

> <Gold.Chemscore.Hbonds>
donor molecule, donor type, donor heavy atom, donor atom, acceptor molecule, acceptor atom, score
      L1  H    21    50       P1  4098  1.00
      L1  H    25    53       P1  1334  1.00
      P1  H  4097  4104       L1    25  0.99

> <Gold.PLP.Chemscore.Internal.Correction>
0.6464

