#       Name:                C:\Users\porto\OneDrive\projekt\beta1\ligandy\L_4bvn.pdb L_4bvn.pdb 1
#       Creating user name   mateusz
#       Creation time:       Wed Apr  3 10:13:53 2019


#       File generated by GOLD software.
#

@<TRIPOS>MOLECULE
C:\Users\porto\OneDrive\projekt\beta1\ligandy\L_4bvn.pdb L_4bvn.pdb 1|4bvn|mol2|1|dock4
    48    49     1
SMALL
GASTEIGER


@<TRIPOS>ATOM
      1 C1         -23.1932   4.8415  12.6263 C.2            1 <1>                0.1822
      2 N1         -23.6502   3.8517  13.3607 N.1            1 <1>               -0.3633
      3 O1         -22.9135   7.6139  15.7335 O.3            1 <1>               -0.4884
      4 C2         -22.9956   5.9280  13.4072 C.3            1 <1>                0.0496
      5 N2         -24.4719   9.9960  19.2581 N.3            1 <1>               -0.3088
      6 O2         -24.8525   8.9496  16.9391 O.3            1 <1>               -0.3872
      7 C3         -23.3604   5.5998  14.6471 C.ar           1 <1>                0.0656
      8 N3         -22.5536   4.7332   9.9259 N.1            1 <1>               -0.1885
      9 C4         -23.3777   6.3077  15.7944 C.ar           1 <1>                0.1336
     10 C5         -23.8615   5.7218  16.9307 C.ar           1 <1>               -0.0184
     11 C6         -24.3145   4.3999  16.9290 C.ar           1 <1>               -0.0489
     12 C7         -24.3009   3.7147  15.7038 C.ar           1 <1>                0.0031
     13 C8         -23.8224   4.3129  14.5994 C.ar           1 <1>               -0.0070
     14 C9         -22.5428   8.2022  16.9058 C.3            1 <1>                0.1166
     15 C10        -23.4732   9.3928  17.1310 C.3            1 <1>                0.1015
     16 C11        -23.2064   9.8440  18.5340 C.3            1 <1>                0.0256
     17 C12        -24.2755  10.4228  20.7101 C.3            1 <1>                0.0108
     18 C13        -23.3105   9.4664  21.4846 C.3            1 <1>               -0.0473
     19 C14        -25.6428  10.4010  21.4602 C.3            1 <1>               -0.0473
     20 C15        -23.7173  11.8464  20.8801 C.3            1 <1>               -0.0473
     21 C16        -22.8708   4.7724  11.1787 C.1            1 <1>                0.1289
     22 H21        -23.6182   6.7483  13.0515 H              1 <1>                0.0403
     23 H22        -21.9389   6.1940  13.3985 H              1 <1>                0.0403
     24 HN2        -24.9519   9.1076  19.2293 H              1 <1>                0.1225
     25 HO2        -25.1198   8.4028  17.6817 H              1 <1>                0.2100
     26 H5         -23.8991   6.2825  17.8532 H              1 <1>                0.0654
     27 H6         -24.6567   3.9445  17.8472 H              1 <1>                0.0625
     28 H7         -24.6758   2.7037  15.6464 H              1 <1>                0.0725
     29 H91        -21.5147   8.5553  16.8251 H              1 <1>                0.0723
     30 H92        -22.6617   7.4900  17.7227 H              1 <1>                0.0723
     31 H10        -23.2354  10.1922  16.4287 H              1 <1>                0.0640
     32 H111       -22.5852   9.1063  19.0407 H              1 <1>                0.0451
     33 H112       -22.6823  10.7994  18.5146 H              1 <1>                0.0451
     34 H131       -23.2028   9.8125  22.5129 H              1 <1>                0.0247
     35 H132       -23.7202   8.4564  21.4827 H              1 <1>                0.0247
     36 H133       -22.3349   9.4632  20.9995 H              1 <1>                0.0247
     37 H141       -25.4943  10.7070  22.4962 H              1 <1>                0.0247
     38 H142       -26.3349  11.0886  20.9747 H              1 <1>                0.0247
     39 H143       -26.0556   9.3920  21.4348 H              1 <1>                0.0247
     40 H151       -23.6077  12.0703  21.9415 H              1 <1>                0.0247
     41 H152       -22.7452  11.9165  20.3921 H              1 <1>                0.0247
     42 H153       -24.4028  12.5627  20.4270 H              1 <1>                0.0247
     43 ****       -23.6405   8.1724  15.3341 LP             1 <1>                0.0000
     44 ****       -22.1170   7.6215  15.1288 LP             1 <1>                0.0000
     45 ****       -25.0033  10.7192  18.8171 LP             1 <1>                0.0000
     46 ****       -24.9175   8.4189  16.0941 LP             1 <1>                0.0000
     47 ****       -25.4533   9.7468  16.8791 LP             1 <1>                0.0000
     48 ****       -22.3082   4.7030   8.9569 LP             1 <1>                0.0000
@<TRIPOS>BOND
    1    1    4 1     
    2    1   21 1     
    3    1    2 2     
    4    2   13 2     
    5    3    9 1     
    6    3   14 1     
    7    4    7 1     
    8    4   22 1     
    9    4   23 1     
   10    5   17 1     
   11    5   16 1     
   12    5   24 1     
   13    6   15 1     
   14    6   25 1     
   15    7    9 ar    
   16    7   13 ar    
   17    8   21 3     
   18    9   10 ar    
   19   10   11 ar    
   20   10   26 1     
   21   11   12 ar    
   22   11   27 1     
   23   12   13 ar    
   24   12   28 1     
   25   14   15 1     
   26   14   29 1     
   27   14   30 1     
   28   15   16 1     
   29   15   31 1     
   30   16   32 1     
   31   16   33 1     
   32   17   18 1     
   33   17   19 1     
   34   17   20 1     
   35   18   34 1     
   36   18   35 1     
   37   18   36 1     
   38   19   37 1     
   39   19   38 1     
   40   19   39 1     
   41   20   40 1     
   42   20   41 1     
   43   20   42 1     
   44    3   43 1     
   45    3   44 1     
   46    5   45 1     
   47    6   46 1     
   48    6   47 1     
   49    8   48 1     
@<TRIPOS>SUBSTRUCTURE
      1 ****           1
@<TRIPOS>SET
LONE_PAIRS      STATIC     ATOMS    <user>   **** ""
6 43 44 45 46 47 48
DONOR_HYDROGENS      STATIC     ATOMS    <user>   **** ""
2 24 25
ATOM$BLUE        STATIC     ATOMS    COLORGROUP SYSTEM
6 43 44 45 46 47 48
ATOM$RED        STATIC     ATOMS    COLORGROUP SYSTEM
2 24 25
@<TRIPOS>COMMENT
> <Gold.Version>
5.5

> <Gold.Id.Protein>
unknown|bialko_beta1|pdb

> <Gold.Protein.ActiveResidues>
 ALA86   ASP87   VAL90   VAL94   VAL95   GLY98   ALA99   LEU101  VAL102  CYS114 
 GLU115  TRP117  THR118  SER119  LEU120  ASP121  VAL122  CYS124  VAL125  THR126 
 SER128  SER173  PHE174  ILE177  CYS199  ASP200  PHE201  TYR207  SER215  PHE299 
 TRP303  PHE306  PHE307  ASN310  PHE325  VAL326  ASN329  TRP330  GLY332  TYR333 
 SER336 

> <Gold.Score>
     Score     S(PLP)   S(hbond)     S(cho)   S(metal)  DE(clash)   DE(tors)     intcor
     60.42     -57.09       2.00       0.00       0.00       0.00       1.43       0.18

> <Gold.PLP.Fitness>
60.4171

> <Gold.PLP.PLP>
-57.0928

> <Gold.PLP.part.hbond>
-2.0000

> <Gold.PLP.part.metal>
0.0000

> <Gold.PLP.part.buried>
-6.6300

> <Gold.PLP.part.nonpolar>
-48.8510

> <Gold.PLP.part.repulsive>
0.3858

> <Gold.PLP.ligand.clash>
0.0000

> <Gold.PLP.ligand.torsion>
1.4283

> <Gold.PLP.Chemscore.Hbond>
2.0000

> <Gold.PLP.Chemscore.CHOScore>
0.0000

> <Gold.PLP.Chemscore.Metal>
0.0000

> <Gold.Chemscore.Hbonds>
donor molecule, donor type, donor heavy atom, donor atom, acceptor molecule, acceptor atom, score
      L1  H     5    24       P1  2066  1.00
      L1  H     6    25       P1  2066  1.00

> <Gold.PLP.Chemscore.Internal.Correction>
0.1809

