#       Name:                C:\Users\porto\OneDrive\projekt\beta2\ligandy\L_2rh1.pdb L_2rh1.pdb 1
#       Creating user name   student
#       Creation time:       Wed Apr 10 09:46:10 2019


#       File generated by GOLD software.
#

@<TRIPOS>MOLECULE
C:\Users\porto\OneDrive\projekt\beta2\ligandy\L_2rh1.pdb L_2rh1.pdb 1|2rh1|mol2|1|dock1
    49    51     1
SMALL
GASTEIGER


@<TRIPOS>ATOM
      1 C1         -26.3101   6.7290   7.6809 C.ar           1 <1>               -0.0598
      2 C2         -25.5533   7.6810   7.0072 C.ar           1 <1>               -0.0378
      3 C3         -26.1241   8.8783   6.6442 C.ar           1 <1>                0.0476
      4 C4         -27.5238   9.1046   6.9857 C.ar           1 <1>                0.0109
      5 C5         -28.2612   8.1446   7.6553 C.ar           1 <1>               -0.0519
      6 C6         -27.6458   6.9558   8.0004 C.ar           1 <1>               -0.0611
      7 N7         -25.6798  10.0040   5.9890 N.pl3          1 <1>               -0.3540
      8 C8         -26.7015  10.9203   5.8972 C.ar           1 <1>                0.0510
      9 C9         -27.8752  10.3361   6.5358 C.ar           1 <1>                0.0490
     10 C10        -26.8105  12.1701   5.3633 C.ar           1 <1>               -0.0375
     11 C11        -28.0084  12.8606   5.4300 C.ar           1 <1>               -0.0563
     12 C12        -29.1234  12.3018   6.0387 C.ar           1 <1>               -0.0192
     13 C13        -29.0759  11.0224   6.6055 C.ar           1 <1>                0.1303
     14 O14        -30.1662  10.4700   7.2032 O.3            1 <1>               -0.4887
     15 C15        -31.4232  11.1099   7.3113 C.3            1 <1>                0.1166
     16 C16        -32.3828  10.1975   8.0332 C.3            1 <1>                0.1015
     17 O17        -33.6332  10.8533   8.1578 O.3            1 <1>               -0.3872
     18 C18        -32.5263   8.8811   7.2633 C.3            1 <1>                0.0254
     19 N19        -33.7203   8.1381   7.6538 N.3            1 <1>               -0.3112
     20 C20        -33.9232   6.7618   7.2367 C.3            1 <1>                0.0021
     21 C21        -33.7188   6.6621   5.7263 C.3            1 <1>               -0.0499
     22 C22        -35.3143   6.2899   7.6703 C.3            1 <1>               -0.0499
     23 H1         -25.8393   5.7965   7.9569 H              1 <1>                0.0618
     24 H2         -24.5193   7.4798   6.7701 H              1 <1>                0.0638
     25 H5         -29.2964   8.3317   7.8983 H              1 <1>                0.0624
     26 H6         -28.2116   6.1992   8.5233 H              1 <1>                0.0618
     27 HN7        -24.7253  10.0546   5.6618 H              1 <1>                0.1659
     28 H10        -25.9585  12.6290   4.8840 H              1 <1>                0.0638
     29 H11        -28.0856  13.8501   5.0042 H              1 <1>                0.0619
     30 H12        -30.0498  12.8556   6.0813 H              1 <1>                0.0654
     31 H151       -31.8076  11.3260   6.3143 H              1 <1>                0.0723
     32 H152       -31.3115  12.0367   7.8735 H              1 <1>                0.0723
     33 H16        -31.9920   9.9858   9.0285 H              1 <1>                0.0640
     34 HO17       -34.0196  10.9738   7.2879 H              1 <1>                0.2100
     35 H181       -31.6440   8.2641   7.4327 H              1 <1>                0.0450
     36 H182       -32.5622   9.0883   6.1936 H              1 <1>                0.0450
     37 HN19       -33.7689   8.0845   8.6608 H              1 <1>                0.1223
     38 H20        -33.1773   6.1373   7.7283 H              1 <1>                0.0455
     39 H211       -34.0132   5.6702   5.3839 H              1 <1>                0.0245
     40 H212       -34.3284   7.4143   5.2256 H              1 <1>                0.0245
     41 H213       -32.6679   6.8299   5.4889 H              1 <1>                0.0245
     42 H221       -35.4177   6.4049   8.7496 H              1 <1>                0.0245
     43 H222       -36.0743   6.8883   7.1671 H              1 <1>                0.0245
     44 H223       -35.4429   5.2409   7.4026 H              1 <1>                0.0245
     45 ****       -29.8857  10.2655   8.1410 LP             1 <1>                0.0000
     46 ****       -30.3392   9.6157   6.7132 LP             1 <1>                0.0000
     47 ****       -33.5001  11.7454   8.5898 LP             1 <1>                0.0000
     48 ****       -34.2459  10.2985   8.7207 LP             1 <1>                0.0000
     49 ****       -34.4100   8.6761   7.1693 LP             1 <1>                0.0000
@<TRIPOS>BOND
    1    1    6 ar    
    2    1    2 ar    
    3    1   23 1     
    4    2    3 ar    
    5    2   24 1     
    6    3    4 ar    
    7    3    7 ar    
    8    4    5 ar    
    9    4    9 ar    
   10    5    6 ar    
   11    5   25 1     
   12    6   26 1     
   13    7    8 ar    
   14    7   27 1     
   15    8    9 ar    
   16    8   10 ar    
   17    9   13 ar    
   18   10   11 ar    
   19   10   28 1     
   20   11   12 ar    
   21   11   29 1     
   22   12   13 ar    
   23   12   30 1     
   24   13   14 1     
   25   14   15 1     
   26   15   16 1     
   27   15   31 1     
   28   15   32 1     
   29   16   18 1     
   30   16   17 1     
   31   16   33 1     
   32   17   34 1     
   33   18   19 1     
   34   18   35 1     
   35   18   36 1     
   36   19   20 1     
   37   19   37 1     
   38   20   21 1     
   39   20   22 1     
   40   20   38 1     
   41   21   39 1     
   42   21   40 1     
   43   21   41 1     
   44   22   42 1     
   45   22   43 1     
   46   22   44 1     
   47   14   45 1     
   48   14   46 1     
   49   17   47 1     
   50   17   48 1     
   51   19   49 1     
@<TRIPOS>SUBSTRUCTURE
      1 ****           1
@<TRIPOS>SET
LONE_PAIRS      STATIC     ATOMS    <user>   **** ""
5 45 46 47 48 49
DONOR_HYDROGENS      STATIC     ATOMS    <user>   **** ""
3 27 34 37
ATOM$BLUE        STATIC     ATOMS    COLORGROUP SYSTEM
5 45 46 47 48 49
ATOM$RED        STATIC     ATOMS    COLORGROUP SYSTEM
3 27 34 37
@<TRIPOS>COMMENT
> <Gold.Version>
5.6

> <Gold.Id.Protein>
unknown|dok_beta2|pdb

> <Gold.Protein.RotatedTorsions>
[ 4175 4166 4165 4163 ] final -134.77 input -179.98 | X-H torsion
[ 1294 1290 1288 1285 ] final  -67.63 input -179.99 | X-H torsion
[ 4033 4024 4023 4021 ] final   76.12 input  179.98 | X-H torsion
[ 1412 1408 1406 1403 ] final   97.83 input -179.99 | X-H torsion
[ 2830 2825 2824 2821 ] final  114.68 input -179.98 | X-H torsion
[ 2723 2714 2713 2711 ] final -121.07 input -179.98 | X-H torsion
[ 2773 2768 2767 2764 ] final -169.28 input  180.00 | X-H torsion

> <Gold.Protein.ActiveResidues>
 TRP109  THR110  ASP113  VAL114  VAL117  THR118  PHE193  TYR199  SER203  SER207 
 PHE208  TRP286  PHE289  PHE290  ASN293  TYR308  ASN312  TYR316 

> <Gold.Protein.RotatedAtoms>
  -34.5639    4.5526    2.6446 H   0  0  0  0  0  0  0  0  0  0  0  0  # atno 1294 bound_to 1290
  -28.2495   14.5893    2.2077 H   0  0  0  0  0  0  0  0  0  0  0  0  # atno 1412 bound_to 1408
  -26.3104    8.1420    2.8060 H   0  0  0  0  0  0  0  0  0  0  0  0  # atno 2723 bound_to 2714
  -24.7148    9.4382    3.1200 H   0  0  0  0  0  0  0  0  0  0  0  0  # atno 2773 bound_to 2768
  -24.0031   12.7537    3.1232 H   0  0  0  0  0  0  0  0  0  0  0  0  # atno 2830 bound_to 2825
  -29.2741    6.7594   10.9377 H   0  0  0  0  0  0  0  0  0  0  0  0  # atno 4033 bound_to 4024
  -36.0567    9.0070    7.9942 H   0  0  0  0  0  0  0  0  0  0  0  0  # atno 4175 bound_to 4166
  -37.3290    9.1442    7.0332 LP  0  0  0  0  0  0  0  0  0  0  0  0  # atno 4597 bound_to 4166
  -37.4018    8.2341    8.3871 LP  0  0  0  0  0  0  0  0  0  0  0  0  # atno 4598 bound_to 4166
  -34.0137    3.5410    1.5332 LP  0  0  0  0  0  0  0  0  0  0  0  0  # atno 4603 bound_to 1290
  -35.4056    4.3617    1.2969 LP  0  0  0  0  0  0  0  0  0  0  0  0  # atno 4604 bound_to 1290
  -28.5883    5.3273   10.7352 LP  0  0  0  0  0  0  0  0  0  0  0  0  # atno 4607 bound_to 4024
  -27.8273    6.5043   11.5731 LP  0  0  0  0  0  0  0  0  0  0  0  0  # atno 4608 bound_to 4024
  -27.4010   15.1858    3.4265 LP  0  0  0  0  0  0  0  0  0  0  0  0  # atno 4611 bound_to 1408
  -26.6761   14.8078    2.0129 LP  0  0  0  0  0  0  0  0  0  0  0  0  # atno 4612 bound_to 1408
  -23.4911   13.9873    2.2421 LP  0  0  0  0  0  0  0  0  0  0  0  0  # atno 4613 bound_to 2825
  -25.0746   13.5898    2.2787 LP  0  0  0  0  0  0  0  0  0  0  0  0  # atno 4614 bound_to 2825

> <Gold.Score>
     Fitness  S(hb_ext) S(vdw_ext)  S(hb_int)    S(int)      intcor
     73.99       9.00      47.54       0.00      -0.36      -5.80

> <Gold.Goldscore.Fitness>
73.9946

> <Gold.Goldscore.Internal.Vdw>
-5.1906

> <Gold.Goldscore.Internal.Torsion>
-0.9685

> <Gold.Goldscore.External.Vdw>
47.5370

> <Gold.Goldscore.Internal.HBond>
0.0000

> <Gold.Goldscore.External.HBond>
8.9951

> <Gold.Goldscore.Internal.Correction>
-5.7953

> <Gold.Goldscore.Hbonds>
donor molecule, donor type, donor heavy atom, donor atom, acceptor molecule, acceptor atom, score
      P1  H  4166  4175       L1    19  0.30
      P1  H  4097  4104       L1    17  0.74
      L1  H    17    34       P1  1334  0.82
      L1  H    19    37       P1  4098  1.00

> <Gold.Goldscore.Internal.Vdw.Weighted>
-5.1906

> <Gold.Goldscore.Internal.Torsion.Weighted>
-0.9685

> <Gold.Goldscore.External.Vdw.Weighted>
65.3633

> <Gold.Goldscore.Internal.HBond.Weighted>
0.0000

> <Gold.Goldscore.External.HBond.Weighted>
8.9951

> <Gold.Goldscore.Internal.Correction.Weighted>
-5.7953

