#       Name:                C:\Users\porto\OneDrive\projekt\beta2\ligandy\L_3nya.pdb L_3nya.pdb 1
#       Creating user name   student
#       Creation time:       Mon Apr 08 16:03:58 2019


#       File generated by GOLD software.
#

@<TRIPOS>MOLECULE
C:\Users\porto\OneDrive\projekt\beta2\ligandy\L_3nya.pdb L_3nya.pdb 1|3nya|mol2|1|dock6
    46    46     1
SMALL
GASTEIGER


@<TRIPOS>ATOM
      1 C1         -33.2657   6.7404   5.3845 C.3            1 <1>               -0.0499
      2 N1         -33.2514   8.0278   7.4999 N.3            1 <1>               -0.3112
      3 O1         -33.1256  10.5827   8.1135 O.3            1 <1>               -0.3872
      4 C2         -33.3704   6.6781   6.9092 C.3            1 <1>                0.0021
      5 O2         -29.7650  10.5237   6.7038 O.3            1 <1>               -0.4891
      6 C3         -34.6979   6.0661   7.3435 C.3            1 <1>               -0.0499
      7 C4         -32.0601   8.7186   6.9886 C.3            1 <1>                0.0254
      8 C5         -31.8619  10.0243   7.7397 C.3            1 <1>                0.1015
      9 C6         -31.1136  10.9722   6.8228 C.3            1 <1>                0.1166
     10 C7         -28.7730  11.3208   6.1883 C.ar           1 <1>                0.1241
     11 C8         -29.0218  12.6645   5.9158 C.ar           1 <1>               -0.0197
     12 C9         -28.0192  13.4699   5.3924 C.ar           1 <1>               -0.0583
     13 C10        -26.7603  12.9414   5.1412 C.ar           1 <1>               -0.0613
     14 C11        -26.5041  11.6085   5.4137 C.ar           1 <1>               -0.0548
     15 C12        -27.5073  10.7958   5.9381 C.ar           1 <1>               -0.0020
     16 C13        -27.1967   9.3465   6.2283 C.3            1 <1>               -0.0063
     17 C14        -25.8467   9.2601   6.8915 C.2            1 <1>               -0.0867
     18 C15        -24.8565   8.6122   6.3100 C.2            1 <1>               -0.1023
     19 H11        -33.3556   5.7350   4.9722 H              1 <1>                0.0245
     20 H12        -34.0648   7.3679   4.9904 H              1 <1>                0.0245
     21 H13        -32.3008   7.1625   5.1025 H              1 <1>                0.0245
     22 HN1        -33.1844   7.9382   8.5039 H              1 <1>                0.1223
     23 HO1        -33.5999  10.8576   7.3255 H              1 <1>                0.2100
     24 H2         -32.5588   6.0577   7.2902 H              1 <1>                0.0455
     25 H31        -34.7453   6.0339   8.4315 H              1 <1>                0.0245
     26 H32        -35.5201   6.6725   6.9623 H              1 <1>                0.0245
     27 H33        -34.7790   5.0542   6.9469 H              1 <1>                0.0245
     28 H41        -32.1887   8.9268   5.9261 H              1 <1>                0.0450
     29 H42        -31.1845   8.0836   7.1272 H              1 <1>                0.0450
     30 H5         -31.2671   9.8414   8.6348 H              1 <1>                0.0640
     31 H61        -31.5841  10.9729   5.8391 H              1 <1>                0.0723
     32 H62        -31.1262  11.9754   7.2485 H              1 <1>                0.0723
     33 H8         -29.9978  13.0838   6.1120 H              1 <1>                0.0654
     34 H9         -28.2175  14.5099   5.1801 H              1 <1>                0.0619
     35 H10        -25.9827  13.5694   4.7338 H              1 <1>                0.0618
     36 H11        -25.5248  11.1961   5.2200 H              1 <1>                0.0622
     37 H131       -27.1789   8.7845   5.2938 H              1 <1>                0.0357
     38 H132       -27.9558   8.9392   6.8954 H              1 <1>                0.0357
     39 H14        -25.6927   9.7340   7.8498 H              1 <1>                0.0570
     40 H151       -23.8916   8.5552   6.7926 H              1 <1>                0.0532
     41 H152       -25.0105   8.1383   5.3517 H              1 <1>                0.0532
     42 ****       -34.0572   8.5652   7.2510 LP             1 <1>                0.0000
     43 ****       -32.9779  11.3741   8.7067 LP             1 <1>                0.0000
     44 ****       -33.6622   9.8950   8.6026 LP             1 <1>                0.0000
     45 ****       -29.7924   9.7054   6.1297 LP             1 <1>                0.0000
     46 ****       -29.4713  10.2739   7.6265 LP             1 <1>                0.0000
@<TRIPOS>BOND
    1    1    4 1     
    2    1   19 1     
    3    1   20 1     
    4    1   21 1     
    5    2    4 1     
    6    2    7 1     
    7    2   22 1     
    8    3    8 1     
    9    3   23 1     
   10    4    6 1     
   11    4   24 1     
   12    5    9 1     
   13    5   10 1     
   14    6   25 1     
   15    6   26 1     
   16    6   27 1     
   17    7    8 1     
   18    7   28 1     
   19    7   29 1     
   20    8    9 1     
   21    8   30 1     
   22    9   31 1     
   23    9   32 1     
   24   10   11 ar    
   25   10   15 ar    
   26   11   12 ar    
   27   11   33 1     
   28   12   13 ar    
   29   12   34 1     
   30   13   14 ar    
   31   13   35 1     
   32   14   15 ar    
   33   14   36 1     
   34   15   16 1     
   35   16   17 1     
   36   16   37 1     
   37   16   38 1     
   38   17   18 2     
   39   17   39 1     
   40   18   40 1     
   41   18   41 1     
   42    2   42 1     
   43    3   43 1     
   44    3   44 1     
   45    5   45 1     
   46    5   46 1     
@<TRIPOS>SUBSTRUCTURE
      1 ****           1
@<TRIPOS>SET
LONE_PAIRS      STATIC     ATOMS    <user>   **** ""
5 42 43 44 45 46
DONOR_HYDROGENS      STATIC     ATOMS    <user>   **** ""
2 22 23
ATOM$BLUE        STATIC     ATOMS    COLORGROUP SYSTEM
5 42 43 44 45 46
ATOM$RED        STATIC     ATOMS    COLORGROUP SYSTEM
2 22 23
@<TRIPOS>COMMENT
> <Gold.Version>
5.5

> <Gold.Id.Protein>
unknown|dok_beta2|pdb

> <Gold.Protein.RotatedTorsions>
[ 4175 4166 4165 4163 ] final  174.30 input -179.98 | X-H torsion
[ 1294 1290 1288 1285 ] final   -1.81 input -179.99 | X-H torsion
[ 4033 4024 4023 4021 ] final  -18.14 input  179.98 | X-H torsion
[ 1412 1408 1406 1403 ] final -104.90 input -179.99 | X-H torsion
[ 2830 2825 2824 2821 ] final  -50.79 input -179.98 | X-H torsion
[ 2723 2714 2713 2711 ] final   81.10 input -179.98 | X-H torsion
[ 2773 2768 2767 2764 ] final  101.37 input  180.00 | X-H torsion

> <Gold.Protein.ActiveResidues>
 TRP109  THR110  ASP113  VAL114  VAL117  THR118  PHE193  TYR199  SER203  SER207 
 PHE208  TRP286  PHE289  PHE290  ASN293  TYR308  ASN312  TYR316 

> <Gold.Protein.RotatedAtoms>
  -35.3215    4.7378    2.0459 H   0  0  0  0  0  0  0  0  0  0  0  0  # atno 1294 bound_to 1290
  -26.5668   15.0384    2.5467 H   0  0  0  0  0  0  0  0  0  0  0  0  # atno 1412 bound_to 1408
  -26.8539    7.0652    1.5024 H   0  0  0  0  0  0  0  0  0  0  0  0  # atno 2723 bound_to 2714
  -24.0587    9.9657    2.1662 H   0  0  0  0  0  0  0  0  0  0  0  0  # atno 2773 bound_to 2768
  -24.1472   14.1578    2.0151 H   0  0  0  0  0  0  0  0  0  0  0  0  # atno 2830 bound_to 2825
  -28.9455    5.5099   10.6350 H   0  0  0  0  0  0  0  0  0  0  0  0  # atno 4033 bound_to 4024
  -36.3444    9.3236    7.3443 H   0  0  0  0  0  0  0  0  0  0  0  0  # atno 4175 bound_to 4166
  -37.7970    8.6691    7.4944 LP  0  0  0  0  0  0  0  0  0  0  0  0  # atno 4597 bound_to 4166
  -36.6339    8.3791    8.6033 LP  0  0  0  0  0  0  0  0  0  0  0  0  # atno 4598 bound_to 4166
  -33.9544    4.0070    2.4436 LP  0  0  0  0  0  0  0  0  0  0  0  0  # atno 4603 bound_to 1290
  -34.6754    3.7027    1.0103 LP  0  0  0  0  0  0  0  0  0  0  0  0  # atno 4604 bound_to 1290
  -27.7233    6.1090   11.4774 LP  0  0  0  0  0  0  0  0  0  0  0  0  # atno 4607 bound_to 4024
  -29.0345    7.0242   11.1462 LP  0  0  0  0  0  0  0  0  0  0  0  0  # atno 4608 bound_to 4024
  -27.8580   14.4924    1.7748 LP  0  0  0  0  0  0  0  0  0  0  0  0  # atno 4611 bound_to 1408
  -27.9726   15.0332    3.3113 LP  0  0  0  0  0  0  0  0  0  0  0  0  # atno 4612 bound_to 1408
  -25.0161   13.0195    2.7288 LP  0  0  0  0  0  0  0  0  0  0  0  0  # atno 4613 bound_to 2825
  -23.3995   13.0937    2.9472 LP  0  0  0  0  0  0  0  0  0  0  0  0  # atno 4614 bound_to 2825

> <Gold.Score>
     Score     S(PLP)   S(hbond)     S(cho)   S(metal)  DE(clash)   DE(tors)     intcor
     73.91     -67.35       2.95       0.00       0.00       0.00       1.21       0.14

> <Gold.PLP.Fitness>
73.9146

> <Gold.PLP.PLP>
-67.3464

> <Gold.PLP.part.hbond>
-3.5247

> <Gold.PLP.part.metal>
0.0000

> <Gold.PLP.part.buried>
-8.7052

> <Gold.PLP.part.nonpolar>
-55.6413

> <Gold.PLP.part.repulsive>
0.0091

> <Gold.PLP.ligand.clash>
0.0000

> <Gold.PLP.ligand.torsion>
1.2122

> <Gold.PLP.Chemscore.Hbond>
2.9513

> <Gold.PLP.Chemscore.CHOScore>
0.0000

> <Gold.PLP.Chemscore.Metal>
0.0000

> <Gold.Chemscore.Hbonds>
donor molecule, donor type, donor heavy atom, donor atom, acceptor molecule, acceptor atom, score
      L1  H     2    22       P1  4098  0.99
      L1  H     3    23       P1  1334  1.00
      P1  H  4097  4104       L1     3  0.96

> <Gold.PLP.Chemscore.Internal.Correction>
0.1388

