#       Name:                C:\Users\porto\OneDrive\projekt\beta2\ligandy\L_3nya.pdb L_3nya.pdb 1
#       Creating user name   student
#       Creation time:       Mon Apr 08 16:03:28 2019


#       File generated by GOLD software.
#

@<TRIPOS>MOLECULE
C:\Users\porto\OneDrive\projekt\beta2\ligandy\L_3nya.pdb L_3nya.pdb 1
    46    46     1
SMALL
GASTEIGER


@<TRIPOS>ATOM
      1 C1          -3.0110  -2.3024  -1.6423 C.3            1 <1>               -0.0499
      2 N1          -3.1900  -0.9534   0.4267 N.3            1 <1>               -0.3112
      3 O1          -3.1880   1.7576   0.6907 O.3            1 <1>               -0.3872
      4 C2          -3.1510  -2.3264  -0.1193 C.3            1 <1>                0.0021
      5 O2           0.4370   1.3206   0.6157 O.3            1 <1>               -0.4891
      6 C3          -4.4190  -3.0604   0.3037 C.3            1 <1>               -0.0499
      7 C4          -1.9340  -0.2444   0.1477 C.3            1 <1>                0.0254
      8 C5          -1.9310   1.0956   0.8637 C.3            1 <1>                0.1015
      9 C6          -0.8080   1.9276   0.2757 C.3            1 <1>                0.1166
     10 C7           1.6220   1.7156   0.0457 C.ar           1 <1>                0.1241
     11 C8           1.6560   2.8076  -0.8193 C.ar           1 <1>               -0.0197
     12 C9           2.8540   3.2056  -1.3973 C.ar           1 <1>               -0.0583
     13 C10          4.0270   2.5196  -1.1133 C.ar           1 <1>               -0.0613
     14 C11          4.0020   1.4366  -0.2513 C.ar           1 <1>               -0.0548
     15 C12          2.8020   1.0326   0.3307 C.ar           1 <1>               -0.0020
     16 C13          2.8070  -0.1504   1.2697 C.3            1 <1>               -0.0063
     17 C14          3.5010  -1.3054   0.5957 C.2            1 <1>               -0.0867
     18 C15          4.7550  -1.5924   0.8847 C.2            1 <1>               -0.1023
     19 H11         -2.9840  -3.3244  -2.0213 H              1 <1>                0.0245
     20 H12         -3.8600  -1.7754  -2.0773 H              1 <1>                0.0245
     21 H13         -2.0880  -1.7904  -1.9153 H              1 <1>                0.0245
     22 HN1         -3.9520  -0.4434   0.0027 H              1 <1>                0.1223
     23 HO1         -3.1710   2.6016   1.1477 H              1 <1>                0.2100
     24 H2          -2.2900  -2.8454   0.3027 H              1 <1>                0.0455
     25 H31         -4.4930  -3.0624   1.3907 H              1 <1>                0.0245
     26 H32         -5.2890  -2.5564  -0.1183 H              1 <1>                0.0245
     27 H33         -4.3830  -4.0874  -0.0593 H              1 <1>                0.0245
     28 H41         -1.8390  -0.0824  -0.9263 H              1 <1>                0.0450
     29 H42         -1.0930  -0.8444   0.4967 H              1 <1>                0.0450
     30 H5          -1.7470   0.9386   1.9267 H              1 <1>                0.0640
     31 H61         -0.9110   1.9616  -0.8093 H              1 <1>                0.0723
     32 H62         -0.8460   2.9346   0.6907 H              1 <1>                0.0723
     33 H8           0.7480   3.3486  -1.0423 H              1 <1>                0.0654
     34 H9           2.8750   4.0506  -2.0693 H              1 <1>                0.0619
     35 H10          4.9570   2.8306  -1.5643 H              1 <1>                0.0618
     36 H11          4.9140   0.9026  -0.0283 H              1 <1>                0.0622
     37 H131         1.7800  -0.4314   1.5057 H              1 <1>                0.0357
     38 H132         3.3420   0.1126   2.1817 H              1 <1>                0.0357
     39 H14          2.9640  -1.9004  -0.1283 H              1 <1>                0.0570
     40 H151         5.2450  -2.4224   0.3967 H              1 <1>                0.0532
     41 H152         5.2920  -0.9974   1.6087 H              1 <1>                0.0532
     42 ****        -3.3185  -1.0127   1.4167 LP             1 <1>                0.0000
     43 ****        -3.9189   1.1889   1.0681 LP             1 <1>                0.0000
     44 ****        -3.3534   1.9095  -0.2837 LP             1 <1>                0.0000
     45 ****         0.3386   0.3470   0.4094 LP             1 <1>                0.0000
     46 ****         0.5471   1.4427   1.6021 LP             1 <1>                0.0000
@<TRIPOS>BOND
    1    1    4 1     
    2    1   19 1     
    3    1   20 1     
    4    1   21 1     
    5    2    4 1     
    6    2    7 1     
    7    2   22 1     
    8    3    8 1     
    9    3   23 1     
   10    4    6 1     
   11    4   24 1     
   12    5    9 1     
   13    5   10 1     
   14    6   25 1     
   15    6   26 1     
   16    6   27 1     
   17    7    8 1     
   18    7   28 1     
   19    7   29 1     
   20    8    9 1     
   21    8   30 1     
   22    9   31 1     
   23    9   32 1     
   24   10   11 ar    
   25   10   15 ar    
   26   11   12 ar    
   27   11   33 1     
   28   12   13 ar    
   29   12   34 1     
   30   13   14 ar    
   31   13   35 1     
   32   14   15 ar    
   33   14   36 1     
   34   15   16 1     
   35   16   17 1     
   36   16   37 1     
   37   16   38 1     
   38   17   18 2     
   39   17   39 1     
   40   18   40 1     
   41   18   41 1     
   42    2   42 1     
   43    3   43 1     
   44    3   44 1     
   45    5   45 1     
   46    5   46 1     
@<TRIPOS>SUBSTRUCTURE
      1 ****           1
@<TRIPOS>SET
LONE_PAIRS      STATIC     ATOMS    <user>   **** ""
5 42 43 44 45 46
DONOR_HYDROGENS      STATIC     ATOMS    <user>   **** ""
2 22 23
ATOM$BLUE        STATIC     ATOMS    COLORGROUP SYSTEM
5 42 43 44 45 46
ATOM$RED        STATIC     ATOMS    COLORGROUP SYSTEM
2 22 23
