#       Name:                C:\Users\porto\OneDrive\projekt\beta2\ligandy\L_3nya.pdb L_3nya.pdb 1
#       Creating user name   student
#       Creation time:       Mon Apr 08 15:46:01 2019


#       File generated by GOLD software.
#

@<TRIPOS>MOLECULE
C:\Users\porto\OneDrive\projekt\beta2\ligandy\L_3nya.pdb L_3nya.pdb 1|3nya|mol2|1|dock1
    46    46     1
SMALL
GASTEIGER


@<TRIPOS>ATOM
      1 C1         -33.3418   7.1063   4.7977 C.3            1 <1>               -0.0499
      2 N1         -33.1857   7.9011   7.1379 N.3            1 <1>               -0.3112
      3 O1         -33.4001  10.4464   8.0837 O.3            1 <1>               -0.3872
      4 C2         -33.1314   6.7127   6.2607 C.3            1 <1>                0.0021
      5 O2         -29.8603  10.6030   7.1989 O.3            1 <1>               -0.4891
      6 C3         -34.1898   5.7146   6.7181 C.3            1 <1>               -0.0499
      7 C4         -32.1039   8.8403   6.8127 C.3            1 <1>                0.0254
      8 C5         -32.0758   9.9645   7.8342 C.3            1 <1>                0.1015
      9 C6         -31.2051  11.0722   7.2738 C.3            1 <1>                0.1166
     10 C7         -28.8810  11.2961   6.5312 C.ar           1 <1>                0.1241
     11 C8         -29.1544  12.5491   5.9861 C.ar           1 <1>               -0.0197
     12 C9         -28.1646  13.2489   5.3091 C.ar           1 <1>               -0.0583
     13 C10        -26.8942  12.7055   5.1748 C.ar           1 <1>               -0.0613
     14 C11        -26.6137  11.4633   5.7177 C.ar           1 <1>               -0.0548
     15 C12        -27.6039  10.7565   6.3973 C.ar           1 <1>               -0.0020
     16 C13        -27.2668   9.4051   6.9817 C.3            1 <1>               -0.0063
     17 C14        -26.6290   8.5566   5.9125 C.2            1 <1>               -0.0867
     18 C15        -25.3196   8.4081   5.8697 C.2            1 <1>               -0.1023
     19 H11        -33.2972   6.2151   4.1711 H              1 <1>                0.0245
     20 H12        -34.3162   7.5815   4.6854 H              1 <1>                0.0245
     21 H13        -32.5613   7.8034   4.4920 H              1 <1>                0.0245
     22 HN1        -34.0716   8.3708   7.0148 H              1 <1>                0.1223
     23 HO1        -33.3664  11.1555   8.7299 H              1 <1>                0.2100
     24 H2         -32.1491   6.2500   6.3604 H              1 <1>                0.0455
     25 H31        -34.0160   5.4522   7.7612 H              1 <1>                0.0245
     26 H32        -35.1792   6.1615   6.6164 H              1 <1>                0.0245
     27 H33        -34.1323   4.8163   6.1037 H              1 <1>                0.0245
     28 H41        -32.2707   9.2567   5.8190 H              1 <1>                0.0450
     29 H42        -31.1492   8.3134   6.8263 H              1 <1>                0.0450
     30 H5         -31.6417   9.5985   8.7648 H              1 <1>                0.0640
     31 H61        -31.5532  11.3376   6.2751 H              1 <1>                0.0723
     32 H62        -31.2508  11.9390   7.9327 H              1 <1>                0.0723
     33 H8         -30.1395  12.9800   6.0896 H              1 <1>                0.0654
     34 H9         -28.3819  14.2182   4.8858 H              1 <1>                0.0619
     35 H10        -26.1266  13.2513   4.6477 H              1 <1>                0.0618
     36 H11        -25.6254  11.0397   5.6152 H              1 <1>                0.0622
     37 H131       -28.1800   8.9225   7.3317 H              1 <1>                0.0357
     38 H132       -26.5695   9.5315   7.8092 H              1 <1>                0.0357
     39 H14        -27.2521   8.0678   5.1781 H              1 <1>                0.0570
     40 H151       -24.8705   7.7978   5.0997 H              1 <1>                0.0532
     41 H152       -24.6965   8.8969   6.6042 H              1 <1>                0.0532
     42 ****       -33.0808   7.5975   8.0849 LP             1 <1>                0.0000
     43 ****       -33.9652   9.7006   8.4365 LP             1 <1>                0.0000
     44 ****       -33.7956  10.7902   7.2320 LP             1 <1>                0.0000
     45 ****       -29.9031   9.6995   6.7725 LP             1 <1>                0.0000
     46 ****       -29.5435  10.5114   8.1429 LP             1 <1>                0.0000
@<TRIPOS>BOND
    1    1    4 1     
    2    1   19 1     
    3    1   20 1     
    4    1   21 1     
    5    2    4 1     
    6    2    7 1     
    7    2   22 1     
    8    3    8 1     
    9    3   23 1     
   10    4    6 1     
   11    4   24 1     
   12    5    9 1     
   13    5   10 1     
   14    6   25 1     
   15    6   26 1     
   16    6   27 1     
   17    7    8 1     
   18    7   28 1     
   19    7   29 1     
   20    8    9 1     
   21    8   30 1     
   22    9   31 1     
   23    9   32 1     
   24   10   11 ar    
   25   10   15 ar    
   26   11   12 ar    
   27   11   33 1     
   28   12   13 ar    
   29   12   34 1     
   30   13   14 ar    
   31   13   35 1     
   32   14   15 ar    
   33   14   36 1     
   34   15   16 1     
   35   16   17 1     
   36   16   37 1     
   37   16   38 1     
   38   17   18 2     
   39   17   39 1     
   40   18   40 1     
   41   18   41 1     
   42    2   42 1     
   43    3   43 1     
   44    3   44 1     
   45    5   45 1     
   46    5   46 1     
@<TRIPOS>SUBSTRUCTURE
      1 ****           1
@<TRIPOS>SET
LONE_PAIRS      STATIC     ATOMS    <user>   **** ""
5 42 43 44 45 46
DONOR_HYDROGENS      STATIC     ATOMS    <user>   **** ""
2 22 23
ATOM$BLUE        STATIC     ATOMS    COLORGROUP SYSTEM
5 42 43 44 45 46
ATOM$RED        STATIC     ATOMS    COLORGROUP SYSTEM
2 22 23
@<TRIPOS>COMMENT
> <Gold.Version>
5.5

> <Gold.Id.Protein>
unknown|dok_beta2|pdb

> <Gold.Protein.RotatedTorsions>
[ 4175 4166 4165 4163 ] final   10.30 input -179.98 | X-H torsion
[ 1294 1290 1288 1285 ] final  -41.17 input -179.99 | X-H torsion
[ 4033 4024 4023 4021 ] final   69.61 input  179.98 | X-H torsion
[ 1412 1408 1406 1403 ] final -115.13 input -179.99 | X-H torsion
[ 2830 2825 2824 2821 ] final   96.23 input -179.98 | X-H torsion
[ 2723 2714 2713 2711 ] final  138.68 input -179.98 | X-H torsion
[ 2773 2768 2767 2764 ] final -116.51 input  180.00 | X-H torsion

> <Gold.Protein.ActiveResidues>
 TRP109  THR110  ASP113  VAL114  VAL117  THR118  PHE193  TYR199  SER203  SER207 
 PHE208  TRP286  PHE289  PHE290  ASN293  TYR308  ASN312  TYR316 

> <Gold.Protein.RotatedAtoms>
  -34.9171    4.7145    2.5012 H   0  0  0  0  0  0  0  0  0  0  0  0  # atno 1294 bound_to 1290
  -26.5696   14.9824    2.3954 H   0  0  0  0  0  0  0  0  0  0  0  0  # atno 1412 bound_to 1408
  -27.0326    7.0447    2.3553 H   0  0  0  0  0  0  0  0  0  0  0  0  # atno 2723 bound_to 2714
  -24.6315    9.8938    3.7775 H   0  0  0  0  0  0  0  0  0  0  0  0  # atno 2773 bound_to 2768
  -23.7350   12.8586    3.0879 H   0  0  0  0  0  0  0  0  0  0  0  0  # atno 2830 bound_to 2825
  -29.3175    6.6818   10.8860 H   0  0  0  0  0  0  0  0  0  0  0  0  # atno 4033 bound_to 4024
  -37.6498    8.3499    8.0916 H   0  0  0  0  0  0  0  0  0  0  0  0  # atno 4175 bound_to 4166
  -36.1191    8.7631    8.3087 LP  0  0  0  0  0  0  0  0  0  0  0  0  # atno 4597 bound_to 4166
  -36.9510    9.3001    7.0101 LP  0  0  0  0  0  0  0  0  0  0  0  0  # atno 4598 bound_to 4166
  -33.8658    3.6561    1.9219 LP  0  0  0  0  0  0  0  0  0  0  0  0  # atno 4603 bound_to 1290
  -35.1855    4.0779    1.0576 LP  0  0  0  0  0  0  0  0  0  0  0  0  # atno 4604 bound_to 1290
  -28.4919    5.3145   10.7801 LP  0  0  0  0  0  0  0  0  0  0  0  0  # atno 4607 bound_to 4024
  -27.8785    6.5979   11.5821 LP  0  0  0  0  0  0  0  0  0  0  0  0  # atno 4608 bound_to 4024
  -27.9997   14.4981    1.8650 LP  0  0  0  0  0  0  0  0  0  0  0  0  # atno 4611 bound_to 1408
  -27.8280   15.0859    3.3788 LP  0  0  0  0  0  0  0  0  0  0  0  0  # atno 4612 bound_to 1408
  -23.7244   14.1182    2.1013 LP  0  0  0  0  0  0  0  0  0  0  0  0  # atno 4613 bound_to 2825
  -25.1208   13.3495    2.4563 LP  0  0  0  0  0  0  0  0  0  0  0  0  # atno 4614 bound_to 2825

> <Gold.Score>
     Score     S(PLP)   S(hbond)     S(cho)   S(metal)  DE(clash)   DE(tors)     intcor
     67.54     -65.93       0.54       0.00       0.00       0.00       0.00       0.00

> <Gold.PLP.Fitness>
67.5390

> <Gold.PLP.PLP>
-65.9302

> <Gold.PLP.part.hbond>
-3.1840

> <Gold.PLP.part.metal>
0.0000

> <Gold.PLP.part.buried>
-7.5400

> <Gold.PLP.part.nonpolar>
-57.1043

> <Gold.PLP.part.repulsive>
0.0081

> <Gold.PLP.ligand.clash>
0.0000

> <Gold.PLP.ligand.torsion>
0.0000

> <Gold.PLP.Chemscore.Hbond>
0.5363

> <Gold.PLP.Chemscore.CHOScore>
0.0000

> <Gold.PLP.Chemscore.Metal>
0.0000

> <Gold.Chemscore.Hbonds>
donor molecule, donor type, donor heavy atom, donor atom, acceptor molecule, acceptor atom, score
      L1  H     2    22       P1  1335  0.54

> <Gold.PLP.Chemscore.Internal.Correction>
0.0000

