#       Name:                C:\Users\porto\OneDrive\projekt\beta1\ligandy\L_6h7j.pdb L_6h7j.pdb 1
#       Creating user name   mateusz
#       Creation time:       Wed Apr  3 10:13:49 2019


#       File generated by GOLD software.
#

@<TRIPOS>MOLECULE
C:\Users\porto\OneDrive\projekt\beta1\ligandy\L_6h7j.pdb L_6h7j.pdb 1|6h7j|mol2|1|dock3
    39    39     1
SMALL
GASTEIGER


@<TRIPOS>ATOM
      1 CAE        -23.9518   6.1443  16.6772 C.3            1 <1>                0.0927
      2 CAF        -22.9300   7.2799  16.8135 C.3            1 <1>                0.0263
      3 CAG        -22.3259   9.2023  18.2233 C.3            1 <1>                0.0021
      4 CAH        -23.6483   5.3091  15.4259 C.ar           1 <1>               -0.0143
      5 CAI        -22.7031   9.8885  19.5441 C.3            1 <1>               -0.0499
      6 CAJ        -20.7975   9.1067  18.0800 C.3            1 <1>               -0.0499
      7 CAK        -23.6095   5.9365  14.1791 C.ar           1 <1>               -0.0109
      8 CAL        -23.4167   3.9330  15.5069 C.ar           1 <1>               -0.0524
      9 CAM        -23.3253   5.2080  13.0249 C.ar           1 <1>                0.1586
     10 CAN        -23.1460   3.1968  14.3552 C.ar           1 <1>               -0.0162
     11 CAO        -23.1002   3.8352  13.1182 C.ar           1 <1>                0.1582
     12 NAD        -23.0025   7.8864  18.1618 N.3            1 <1>               -0.3110
     13 OAA        -23.9013   5.3479  17.8570 O.3            1 <1>               -0.3859
     14 OAB        -23.2806   5.8299  11.8148 O.3            1 <1>               -0.5033
     15 OAC        -22.8374   3.1149  12.0062 O.3            1 <1>               -0.5033
     16 HAE        -24.9492   6.5747  16.5825 H              1 <1>                0.0656
     17 HAF1       -23.1318   8.0422  16.0615 H              1 <1>                0.0453
     18 HAF2       -21.9270   6.8875  16.6457 H              1 <1>                0.0453
     19 HAG        -22.7042   9.8146  17.4049 H              1 <1>                0.0455
     20 HAI1       -23.7885   9.9463  19.6275 H              1 <1>                0.0245
     21 HAI2       -22.3059   9.3127  20.3800 H              1 <1>                0.0245
     22 HAI3       -22.2829  10.8939  19.5643 H              1 <1>                0.0245
     23 HAJ1       -20.3638  10.1050  18.1333 H              1 <1>                0.0245
     24 HAJ2       -20.3948   8.4918  18.8846 H              1 <1>                0.0245
     25 HAJ3       -20.5498   8.6550  17.1195 H              1 <1>                0.0245
     26 HAK        -23.8006   6.9961  14.1021 H              1 <1>                0.0659
     27 HAL        -23.4471   3.4352  16.4652 H              1 <1>                0.0622
     28 HAN        -22.9716   2.1330  14.4223 H              1 <1>                0.0655
     29 HNAD       -23.9702   8.0198  18.4194 H              1 <1>                0.1223
     30 HOAA       -24.3308   5.8143  18.5773 H              1 <1>                0.2103
     31 HOAB       -22.3993   5.7461  11.4444 H              1 <1>                0.2923
     32 HOAC       -22.8255   2.1805  12.2251 H              1 <1>                0.2923
     33 ****       -22.5400   7.2614  18.7906 LP             1 <1>                0.0000
     34 ****       -22.9473   5.1691  18.0977 LP             1 <1>                0.0000
     35 ****       -24.3721   4.4808  17.6940 LP             1 <1>                0.0000
     36 ****       -23.5035   6.7980  11.9292 LP             1 <1>                0.0000
     37 ****       -23.9434   5.4060  11.1975 LP             1 <1>                0.0000
     38 ****       -21.9466   3.3824  11.6388 LP             1 <1>                0.0000
     39 ****       -23.5458   3.2878  11.3220 LP             1 <1>                0.0000
@<TRIPOS>BOND
    1    1    4 1     
    2    1   13 1     
    3    1    2 1     
    4    1   16 1     
    5    2   12 1     
    6    2   17 1     
    7    2   18 1     
    8    3    6 1     
    9    3   12 1     
   10    3    5 1     
   11    3   19 1     
   12    4    7 ar    
   13    4    8 ar    
   14    5   20 1     
   15    5   21 1     
   16    5   22 1     
   17    6   23 1     
   18    6   24 1     
   19    6   25 1     
   20    7    9 ar    
   21    7   26 1     
   22    8   10 ar    
   23    8   27 1     
   24    9   14 1     
   25    9   11 ar    
   26   10   11 ar    
   27   10   28 1     
   28   11   15 1     
   29   12   29 1     
   30   13   30 1     
   31   14   31 1     
   32   15   32 1     
   33   12   33 1     
   34   13   34 1     
   35   13   35 1     
   36   14   36 1     
   37   14   37 1     
   38   15   38 1     
   39   15   39 1     
@<TRIPOS>SUBSTRUCTURE
      1 ****           1
@<TRIPOS>SET
LONE_PAIRS      STATIC     ATOMS    <user>   **** ""
7 33 34 35 36 37 38 39
DONOR_HYDROGENS      STATIC     ATOMS    <user>   **** ""
4 29 30 31 32
ATOM$BLUE        STATIC     ATOMS    COLORGROUP SYSTEM
7 33 34 35 36 37 38 39
ATOM$RED        STATIC     ATOMS    COLORGROUP SYSTEM
4 29 30 31 32
@<TRIPOS>COMMENT
> <Gold.Version>
5.5

> <Gold.Id.Protein>
unknown|bialko_beta1|pdb

> <Gold.Protein.ActiveResidues>
 ALA86   ASP87   VAL90   VAL94   VAL95   GLY98   ALA99   LEU101  VAL102  CYS114 
 GLU115  TRP117  THR118  SER119  LEU120  ASP121  VAL122  CYS124  VAL125  THR126 
 SER128  SER173  PHE174  ILE177  CYS199  ASP200  PHE201  TYR207  SER215  PHE299 
 TRP303  PHE306  PHE307  ASN310  PHE325  VAL326  ASN329  TRP330  GLY332  TYR333 
 SER336 

> <Gold.Score>
     Score     S(PLP)   S(hbond)     S(cho)   S(metal)  DE(clash)   DE(tors)     intcor
     52.32     -49.47       1.09       0.00       0.00       0.00       0.23       0.04

> <Gold.PLP.Fitness>
52.3213

> <Gold.PLP.PLP>
-49.4669

> <Gold.PLP.part.hbond>
-5.5164

> <Gold.PLP.part.metal>
0.0000

> <Gold.PLP.part.buried>
-5.7128

> <Gold.PLP.part.nonpolar>
-38.2052

> <Gold.PLP.part.repulsive>
0.0000

> <Gold.PLP.ligand.clash>
0.0000

> <Gold.PLP.ligand.torsion>
0.2322

> <Gold.PLP.Chemscore.Hbond>
1.0936

> <Gold.PLP.Chemscore.CHOScore>
0.0000

> <Gold.PLP.Chemscore.Metal>
0.0000

> <Gold.Chemscore.Hbonds>
donor molecule, donor type, donor heavy atom, donor atom, acceptor molecule, acceptor atom, score
      L1  H    12    29       P1  2066  0.99
      L1  H    13    30       P1  2066  0.10

> <Gold.PLP.Chemscore.Internal.Correction>
0.0380

