#       Name:                *****
#       Creating user name   student
#       Creation time:       Mon Mar 18 16:41:44 2019


#       File generated by GOLD software.
#

@<TRIPOS>MOLECULE
*****|CHEMBL183277|mol2|1|dock6
    53    55     1
SMALL
GASTEIGER


@<TRIPOS>ATOM
      1 C          -37.6092  17.4565   4.2375 C.3            1 <1>               -0.0425
      2 C          -36.6581  18.3253   5.0732 C.3            1 <1>                0.0444
      3 H          -35.6523  18.2264   4.6455 H              1 <1>                0.0545
      4 N          -36.6966  17.8983   6.4727 N.3            1 <1>               -0.3224
      5 C          -36.2878  16.5866   6.7616 C.ar           1 <1>                0.1242
      6 C          -35.1938  16.4330   7.5907 C.ar           1 <1>               -0.0036
      7 C          -34.7673  15.1503   7.8159 C.ar           1 <1>                0.0344
      8 N          -35.3304  14.0782   7.2424 N.ar           1 <1>               -0.2228
      9 C          -36.3629  14.3083   6.4218 C.ar           1 <1>                0.2169
     10 N          -36.8721  13.1592   5.8291 N.3            1 <1>               -0.3102
     11 C          -38.2654  12.8547   6.1241 C.3            1 <1>                0.0460
     12 C          -38.7121  11.5865   5.3726 C.3            1 <1>                0.1050
     13 O          -37.5541  10.8477   4.9707 O.3            1 <1>               -0.4904
     14 C          -37.7799   9.6269   4.3947 C.ar           1 <1>                0.1207
     15 C          -36.6468   9.0153   3.8444 C.ar           1 <1>               -0.0172
     16 C          -36.7395   7.7544   3.2503 C.ar           1 <1>               -0.0230
     17 C          -37.9624   7.0996   3.2246 C.ar           1 <1>                0.1236
     18 F          -38.0531   5.8871   2.6621 F              1 <1>               -0.2055
     19 C          -39.0936   7.6842   3.7844 C.ar           1 <1>               -0.0230
     20 C          -39.0032   8.9513   4.3724 C.ar           1 <1>               -0.0172
     21 N          -36.8657  15.5265   6.1634 N.ar           1 <1>               -0.1998
     22 C          -37.0241  19.8067   5.0362 C.ar           1 <1>               -0.0275
     23 C          -36.1264  20.7141   4.4470 C.ar           1 <1>               -0.0568
     24 C          -36.4030  22.0829   4.4139 C.ar           1 <1>               -0.0614
     25 C          -37.5785  22.5705   4.9780 C.ar           1 <1>               -0.0617
     26 C          -38.4756  21.6898   5.5769 C.ar           1 <1>               -0.0614
     27 C          -38.1995  20.3193   5.6112 C.ar           1 <1>               -0.0568
     28 H          -38.6270  17.4444   4.6454 H              1 <1>                0.0251
     29 H          -37.2686  16.4157   4.2165 H              1 <1>                0.0251
     30 H          -37.6647  17.8152   3.2040 H              1 <1>                0.0251
     31 H          -37.5916  18.1164   6.8945 H              1 <1>                0.1480
     32 H          -34.6986  17.2746   8.0546 H              1 <1>                0.0667
     33 H          -33.9332  14.9428   8.4787 H              1 <1>                0.0832
     34 H          -36.6387  13.2650   4.8466 H              1 <1>                0.1490
     35 H          -38.9381  13.6739   5.8379 H              1 <1>                0.0495
     36 H          -38.3902  12.7022   7.2030 H              1 <1>                0.0495
     37 H          -39.3016  11.8617   4.4888 H              1 <1>                0.0712
     38 H          -39.3346  10.9891   6.0490 H              1 <1>                0.0712
     39 H          -35.6895   9.5285   3.8727 H              1 <1>                0.0655
     40 H          -35.8640   7.2816   2.8137 H              1 <1>                0.0647
     41 H          -40.0363   7.1453   3.7674 H              1 <1>                0.0647
     42 H          -39.8969   9.3693   4.8237 H              1 <1>                0.0655
     43 H          -35.1940  20.3535   4.0163 H              1 <1>                0.0621
     44 H          -35.6952  22.7673   3.9539 H              1 <1>                0.0618
     45 H          -37.7905  23.6363   4.9581 H              1 <1>                0.0618
     46 H          -39.3900  22.0709   6.0246 H              1 <1>                0.0618
     47 H          -38.9145  19.6641   6.1005 H              1 <1>                0.0621
     48 ****       -35.9746  18.4434   6.8989 LP             1 <1>                0.0000
     49 ****       -34.9961  13.1523   7.4185 LP             1 <1>                0.0000
     50 ****       -36.4603  12.3341   6.2159 LP             1 <1>                0.0000
     51 ****       -36.9900  10.7009   5.7832 LP             1 <1>                0.0000
     52 ****       -37.0505  11.4064   4.3117 LP             1 <1>                0.0000
     53 ****       -37.6443  15.6432   5.5467 LP             1 <1>                0.0000
@<TRIPOS>BOND
    1    2    4 1     
    2    4    5 1     
    3    5    6 ar    
    4    6    7 ar    
    5    7    8 ar    
    6    8    9 ar    
    7    9   10 1     
    8   10   11 1     
    9   11   12 1     
   10   12   13 1     
   11   13   14 1     
   12   14   15 ar    
   13   15   16 ar    
   14   16   17 ar    
   15   17   18 1     
   16   17   19 ar    
   17   19   20 ar    
   18   14   20 ar    
   19    9   21 ar    
   20    5   21 ar    
   21    2   22 1     
   22   22   23 ar    
   23   23   24 ar    
   24   24   25 ar    
   25   25   26 ar    
   26   26   27 ar    
   27   22   27 ar    
   28    2    3 1     
   29    2    1 1     
   30    1   28 1     
   31    1   29 1     
   32    1   30 1     
   33    4   31 1     
   34    6   32 1     
   35    7   33 1     
   36   10   34 1     
   37   11   35 1     
   38   11   36 1     
   39   12   37 1     
   40   12   38 1     
   41   15   39 1     
   42   16   40 1     
   43   19   41 1     
   44   20   42 1     
   45   23   43 1     
   46   24   44 1     
   47   25   45 1     
   48   26   46 1     
   49   27   47 1     
   50    4   48 1     
   51    8   49 1     
   52   10   50 1     
   53   13   51 1     
   54   13   52 1     
   55   21   53 1     
@<TRIPOS>SUBSTRUCTURE
      1 ****           1
@<TRIPOS>SET
LONE_PAIRS      STATIC     ATOMS    <user>   **** ""
6 48 49 50 51 52 53
DONOR_HYDROGENS      STATIC     ATOMS    <user>   **** ""
2 31 34
ATOM$BLUE        STATIC     ATOMS    COLORGROUP SYSTEM
6 48 49 50 51 52 53
ATOM$RED        STATIC     ATOMS    COLORGROUP SYSTEM
2 31 34
@<TRIPOS>COMMENT
> <Gold.Version>
5.5

> <Gold.Id.Protein>
ID|ID_protein|mol2

> <Gold.Protein.ActiveResidues>
 LEU18   LEU52   SER53   ALA55   VAL56   ALA57   MET59   PRO60   PHE61   VAL62  
 SER63   VAL64   LEU67   TRP72   PHE78   CYS79   VAL81   PHE82   ILE83   ALA84  
 MET85   ASP86   VAL87   MET88   CYS89   CYS90   SER93   TRP131  THR138  LEU139 
 LEU142  PHE161  GLU222  GLU225  LEU229  LYS248  THR251  THR252  GLY254  ILE255 

> <Gold.Score>
     Score     S(PLP)   S(hbond)     S(cho)   S(metal)  DE(clash)   DE(tors)     intcor
     78.72     -79.41       0.00       0.00       0.00       0.00       0.48       0.27

> <Gold.PLP.Fitness>
78.7171

> <Gold.PLP.PLP>
-79.4051

> <Gold.PLP.part.hbond>
0.0000

> <Gold.PLP.part.metal>
0.0000

> <Gold.PLP.part.buried>
-8.4912

> <Gold.PLP.part.nonpolar>
-71.6989

> <Gold.PLP.part.repulsive>
0.1889

> <Gold.PLP.ligand.clash>
0.0000

> <Gold.PLP.ligand.torsion>
0.4773

> <Gold.PLP.Chemscore.Hbond>
0.0000

> <Gold.PLP.Chemscore.CHOScore>
0.0000

> <Gold.PLP.Chemscore.Metal>
0.0000

> <Gold.PLP.Chemscore.Internal.Correction>
0.2665

