#       Name:                C:\Users\porto\OneDrive\projekt\beta1\ligandy\L_6h7m.pdb L_6h7m.pdb 1
#       Creating user name   student
#       Creation time:       Mon Apr 08 16:28:38 2019


#       File generated by GOLD software.
#

@<TRIPOS>MOLECULE
C:\Users\porto\OneDrive\projekt\beta1\ligandy\L_6h7m.pdb L_6h7m.pdb 1|6h7m|mol2|1|dock3
    45    45     1
SMALL
GASTEIGER


@<TRIPOS>ATOM
      1 C1         -23.6033   6.7303  16.6274 C.3            1 <1>                0.0926
      2 N1         -22.5773   8.9004  17.1850 N.3            1 <1>               -0.3086
      3 O1         -23.2256   3.2411  12.1600 O.3            1 <1>               -0.5064
      4 C2         -23.2077   6.1781  11.6755 C.3            1 <1>                0.0727
      5 O2         -23.0397   5.2074  10.6267 O.3            1 <1>               -0.3903
      6 C3         -22.3390   7.5834  16.6190 C.3            1 <1>                0.0266
      7 O3         -23.7842   6.0914  17.8971 O.3            1 <1>               -0.3859
      8 C4         -21.7695   9.4190  18.2862 C.3            1 <1>                0.0108
      9 C5         -22.3591   8.9039  19.6201 C.3            1 <1>               -0.0473
     10 C6         -21.7520  10.9591  18.2442 C.3            1 <1>               -0.0473
     11 C7         -20.3364   8.8960  18.0874 C.3            1 <1>               -0.0473
     12 C8         -23.5083   5.7915  15.4706 C.ar           1 <1>               -0.0174
     13 C9         -23.5119   4.4039  15.6298 C.ar           1 <1>               -0.0526
     14 C10        -23.4242   3.5581  14.5212 C.ar           1 <1>               -0.0195
     15 C11        -23.3149   4.0767  13.2262 C.ar           1 <1>                0.1222
     16 C12        -23.3006   5.5463  13.0469 C.ar           1 <1>                0.0195
     17 C13        -23.3990   6.3470  14.1826 C.ar           1 <1>               -0.0472
     18 H1         -24.4545   7.3892  16.4573 H              1 <1>                0.0656
     19 HN1        -23.5455   8.8546  17.4688 H              1 <1>                0.1225
     20 HO1        -23.2101   2.3317  12.4660 H              1 <1>                0.2921
     21 H21        -22.3742   6.8800  11.6559 H              1 <1>                0.0608
     22 H22        -24.1065   6.7653  11.4858 H              1 <1>                0.0608
     23 HO2        -22.8196   4.3551  11.0104 H              1 <1>                0.2098
     24 H31        -21.9785   7.6887  15.5958 H              1 <1>                0.0453
     25 H32        -21.5581   7.0794  17.1882 H              1 <1>                0.0453
     26 HO3        -24.1757   6.7126  18.5158 H              1 <1>                0.2103
     27 H51        -21.7653   9.2836  20.4514 H              1 <1>                0.0247
     28 H52        -23.3881   9.2502  19.7214 H              1 <1>                0.0247
     29 H53        -22.3404   7.8142  19.6291 H              1 <1>                0.0247
     30 H61        -21.1478  11.3386  19.0682 H              1 <1>                0.0247
     31 H62        -21.3252  11.2927  17.2981 H              1 <1>                0.0247
     32 H63        -22.7704  11.3375  18.3361 H              1 <1>                0.0247
     33 H71        -19.7006   9.2624  18.8926 H              1 <1>                0.0247
     34 H72        -20.3428   7.8059  18.0973 H              1 <1>                0.0247
     35 H73        -19.9504   9.2481  17.1307 H              1 <1>                0.0247
     36 H9         -23.5832   3.9739  16.6178 H              1 <1>                0.0622
     37 H10        -23.4403   2.4866  14.6571 H              1 <1>                0.0654
     38 H13        -23.3903   7.4195  14.0559 H              1 <1>                0.0626
     39 ****       -22.3121   9.5550  16.4770 LP             1 <1>                0.0000
     40 ****       -22.3860   3.4364  11.6531 LP             1 <1>                0.0000
     41 ****       -24.0154   3.3782  11.5622 LP             1 <1>                0.0000
     42 ****       -22.3019   5.4991  10.0179 LP             1 <1>                0.0000
     43 ****       -23.8899   5.1288  10.1062 LP             1 <1>                0.0000
     44 ****       -22.8980   5.7872  18.2464 LP             1 <1>                0.0000
     45 ****       -24.3889   5.3022  17.7898 LP             1 <1>                0.0000
@<TRIPOS>BOND
    1    1    6 1     
    2    1    7 1     
    3    1   12 1     
    4    1   18 1     
    5    2    8 1     
    6    2    6 1     
    7    2   19 1     
    8    3   15 1     
    9    3   20 1     
   10    4   16 1     
   11    4    5 1     
   12    4   21 1     
   13    4   22 1     
   14    5   23 1     
   15    6   24 1     
   16    6   25 1     
   17    7   26 1     
   18    8    9 1     
   19    8   10 1     
   20    8   11 1     
   21    9   27 1     
   22    9   28 1     
   23    9   29 1     
   24   10   30 1     
   25   10   31 1     
   26   10   32 1     
   27   11   33 1     
   28   11   34 1     
   29   11   35 1     
   30   12   13 ar    
   31   12   17 ar    
   32   13   14 ar    
   33   13   36 1     
   34   14   15 ar    
   35   14   37 1     
   36   15   16 ar    
   37   16   17 ar    
   38   17   38 1     
   39    2   39 1     
   40    3   40 1     
   41    3   41 1     
   42    5   42 1     
   43    5   43 1     
   44    7   44 1     
   45    7   45 1     
@<TRIPOS>SUBSTRUCTURE
      1 ****           1
@<TRIPOS>SET
LONE_PAIRS      STATIC     ATOMS    <user>   **** ""
7 39 40 41 42 43 44 45
DONOR_HYDROGENS      STATIC     ATOMS    <user>   **** ""
4 19 20 23 26
ATOM$BLUE        STATIC     ATOMS    COLORGROUP SYSTEM
7 39 40 41 42 43 44 45
ATOM$RED        STATIC     ATOMS    COLORGROUP SYSTEM
4 19 20 23 26
@<TRIPOS>COMMENT
> <Gold.Version>
5.5

> <Gold.Id.Protein>
unknown|bialko_beta1|pdb

> <Gold.Protein.ActiveResidues>
 ALA86   ASP87   VAL90   VAL94   VAL95   GLY98   ALA99   LEU101  VAL102  CYS114 
 GLU115  TRP117  THR118  SER119  LEU120  ASP121  VAL122  CYS124  VAL125  THR126 
 SER128  SER173  PHE174  ILE177  CYS199  ASP200  PHE201  TYR207  SER215  PHE299 
 TRP303  PHE306  PHE307  ASN310  PHE325  VAL326  ASN329  TRP330  GLY332  TYR333 
 SER336 

> <Gold.Score>
     Score     S(PLP)   S(hbond)     S(cho)   S(metal)  DE(clash)   DE(tors)     intcor
     56.04     -55.03       1.00       0.00       0.00       0.00       1.14       0.28

> <Gold.PLP.Fitness>
56.0355

> <Gold.PLP.PLP>
-55.0350

> <Gold.PLP.part.hbond>
-3.4654

> <Gold.PLP.part.metal>
0.0000

> <Gold.PLP.part.buried>
-5.5069

> <Gold.PLP.part.nonpolar>
-47.3068

> <Gold.PLP.part.repulsive>
0.0000

> <Gold.PLP.ligand.clash>
0.0000

> <Gold.PLP.ligand.torsion>
1.1402

> <Gold.PLP.Chemscore.Hbond>
1.0000

> <Gold.PLP.Chemscore.CHOScore>
0.0000

> <Gold.PLP.Chemscore.Metal>
0.0000

> <Gold.Chemscore.Hbonds>
donor molecule, donor type, donor heavy atom, donor atom, acceptor molecule, acceptor atom, score
      L1  H     7    26       P1  2066  1.00

> <Gold.PLP.Chemscore.Internal.Correction>
0.2809

