#       Name:                C:\Users\porto\OneDrive\projekt\beta2\ligandy\L_4lde.pdb L_4lde.pdb 1
#       Creating user name   student
#       Creation time:       Mon Apr 08 16:05:27 2019


#       File generated by GOLD software.
#

@<TRIPOS>MOLECULE
C:\Users\porto\OneDrive\projekt\beta2\ligandy\L_4lde.pdb L_4lde.pdb 1|4lde|mol2|1|dock93
    62    64     1
SMALL
GASTEIGER


@<TRIPOS>ATOM
      1 CAA        -36.7794   5.9373   9.9009 C.3            1 <1>               -0.0395
      2 CAB        -33.0034   6.4078   6.0672 C.3            1 <1>               -0.0467
      3 CAC        -32.5548   6.0323   8.4929 C.3            1 <1>               -0.0467
      4 CAG        -35.9385   2.5065   8.5926 C.ar           1 <1>               -0.0615
      5 CAH        -35.0673   2.7911   7.5472 C.ar           1 <1>               -0.0615
      6 CAI        -36.4867   3.5328   9.3502 C.ar           1 <1>               -0.0586
      7 CAJ        -34.7383   4.1045   7.2667 C.ar           1 <1>               -0.0583
      8 CAK        -30.2822  12.8962   5.7457 C.ar           1 <1>               -0.0178
      9 CAL        -31.0845  12.0975   6.5562 C.ar           1 <1>               -0.0490
     10 CAM        -27.4998   9.0130   6.9670 C.3            1 <1>                0.1656
     11 CAN        -31.8896   8.7059   7.0828 C.3            1 <1>                0.0267
     12 CAO        -34.9133   6.5632   7.6746 C.3            1 <1>               -0.0096
     13 CAS        -26.7489   9.7844   5.8982 C.2            1 <1>                0.2550
     14 CAT        -36.1630   4.8500   9.0615 C.ar           1 <1>               -0.0472
     15 CAU        -29.0514  12.4286   5.3011 C.ar           1 <1>                0.1416
     16 CAV        -35.2990   5.1393   8.0111 C.ar           1 <1>               -0.0427
     17 CAW        -30.6618  10.8253   6.9259 C.ar           1 <1>                0.0258
     18 CAX        -28.6231  11.1699   5.6723 C.ar           1 <1>                0.1180
     19 CAY        -29.4182  10.3721   6.4787 C.ar           1 <1>                0.1515
     20 CAZ        -31.5354   9.9971   7.8003 C.3            1 <1>                0.0960
     21 NAP        -33.1363   8.2025   7.6191 N.3            1 <1>               -0.3080
     22 NAQ        -27.4291  10.7111   5.2304 N.am           1 <1>               -0.2769
     23 OAD        -25.5709   9.5536   5.6722 O.2            1 <1>               -0.2717
     24 OAE        -28.2587  13.2033   4.5068 O.3            1 <1>               -0.5048
     25 OAF        -32.7666  10.6658   8.1199 O.3            1 <1>               -0.3858
     26 OAR        -28.9152   9.1372   6.7892 O.3            1 <1>               -0.4804
     27 CBA        -33.4128   6.7877   7.4847 C.3            1 <1>                0.0176
     28 HAA1       -36.4291   6.9084   9.5525 H              1 <1>                0.0278
     29 HAA2       -37.8650   5.8909   9.8168 H              1 <1>                0.0278
     30 HAA3       -36.4904   5.8003  10.9430 H              1 <1>                0.0278
     31 HAB1       -33.6208   6.9512   5.3517 H              1 <1>                0.0247
     32 HAB2       -31.9555   6.6636   5.9098 H              1 <1>                0.0247
     33 HAB3       -33.1406   5.3359   5.9236 H              1 <1>                0.0247
     34 HAC1       -32.8532   6.3089   9.5041 H              1 <1>                0.0247
     35 HAC2       -32.6908   4.9598   8.3547 H              1 <1>                0.0247
     36 HAC3       -31.5058   6.2877   8.3419 H              1 <1>                0.0247
     37 HAG        -36.1932   1.4818   8.8200 H              1 <1>                0.0618
     38 HAH        -34.6498   1.9881   6.9580 H              1 <1>                0.0618
     39 HAI        -37.1627   3.3039  10.1609 H              1 <1>                0.0620
     40 HAJ        -34.0460   4.3287   6.4689 H              1 <1>                0.0620
     41 HAK        -30.6156  13.8832   5.4602 H              1 <1>                0.0655
     42 HAL        -32.0398  12.4652   6.9005 H              1 <1>                0.0623
     43 HAM1       -27.2229   9.3928   7.9503 H              1 <1>                0.0795
     44 HAM2       -27.2193   7.9606   6.9203 H              1 <1>                0.0795
     45 HAN1       -31.1010   7.9710   7.2466 H              1 <1>                0.0453
     46 HAN2       -32.0058   8.9030   6.0166 H              1 <1>                0.0453
     47 HAO1       -35.2821   7.2305   8.4536 H              1 <1>                0.0331
     48 HAO2       -35.4416   6.8777   6.7749 H              1 <1>                0.0331
     49 HAZ        -31.0030   9.7623   8.7223 H              1 <1>                0.0657
     50 HNAP       -33.1732   8.3837   8.6121 H              1 <1>                0.1225
     51 HNAQ       -27.0569  11.0896   4.3708 H              1 <1>                0.1551
     52 HOAE       -28.8079  13.7200   3.9131 H              1 <1>                0.2922
     53 HOAF       -33.1475  11.0359   7.3195 H              1 <1>                0.2103
     54 ****       -33.8140   8.6838   7.0632 LP             1 <1>                0.0000
     55 ****       -25.0903   8.8492   6.1945 LP             1 <1>                0.0000
     56 ****       -25.0871  10.0691   4.9650 LP             1 <1>                0.0000
     57 ****       -27.6490  12.6181   3.9722 LP             1 <1>                0.0000
     58 ****       -27.7146  13.8184   5.0775 LP             1 <1>                0.0000
     59 ****       -32.5867  11.4004   8.7740 LP             1 <1>                0.0000
     60 ****       -33.4068  10.0110   8.5217 LP             1 <1>                0.0000
     61 ****       -29.3487   8.8454   7.6418 LP             1 <1>                0.0000
     62 ****       -29.1780   8.5151   6.0518 LP             1 <1>                0.0000
@<TRIPOS>BOND
    1    1   14 1     
    2    1   28 1     
    3    1   29 1     
    4    1   30 1     
    5    2   27 1     
    6    2   31 1     
    7    2   32 1     
    8    2   33 1     
    9    3   27 1     
   10    3   34 1     
   11    3   35 1     
   12    3   36 1     
   13    4    5 ar    
   14    4    6 ar    
   15    4   37 1     
   16    5    7 ar    
   17    5   38 1     
   18    6   14 ar    
   19    6   39 1     
   20    7   16 ar    
   21    7   40 1     
   22    8    9 ar    
   23    8   15 ar    
   24    8   41 1     
   25    9   17 ar    
   26    9   42 1     
   27   10   13 1     
   28   10   26 1     
   29   10   43 1     
   30   10   44 1     
   31   11   20 1     
   32   11   21 1     
   33   11   45 1     
   34   11   46 1     
   35   12   16 1     
   36   12   27 1     
   37   12   47 1     
   38   12   48 1     
   39   13   22 am    
   40   13   23 2     
   41   14   16 ar    
   42   15   18 ar    
   43   15   24 1     
   44   17   19 ar    
   45   17   20 1     
   46   18   19 ar    
   47   18   22 1     
   48   19   26 1     
   49   20   25 1     
   50   20   49 1     
   51   21   27 1     
   52   21   50 1     
   53   22   51 1     
   54   24   52 1     
   55   25   53 1     
   56   21   54 1     
   57   23   55 1     
   58   23   56 1     
   59   24   57 1     
   60   24   58 1     
   61   25   59 1     
   62   25   60 1     
   63   26   61 1     
   64   26   62 1     
@<TRIPOS>SUBSTRUCTURE
      1 ****           1
@<TRIPOS>SET
LONE_PAIRS      STATIC     ATOMS    <user>   **** ""
9 54 55 56 57 58 59 60 61 62
DONOR_HYDROGENS      STATIC     ATOMS    <user>   **** ""
4 50 51 52 53
ATOM$BLUE        STATIC     ATOMS    COLORGROUP SYSTEM
9 54 55 56 57 58 59 60 61 62
ATOM$RED        STATIC     ATOMS    COLORGROUP SYSTEM
4 50 51 52 53
@<TRIPOS>COMMENT
> <Gold.Version>
5.5

> <Gold.Id.Protein>
unknown|dok_beta2|pdb

> <Gold.Protein.RotatedTorsions>
[ 4175 4166 4165 4163 ] final -155.46 input -179.98 | X-H torsion
[ 1294 1290 1288 1285 ] final -166.92 input -179.99 | X-H torsion
[ 4033 4024 4023 4021 ] final  -23.64 input  179.98 | X-H torsion
[ 1412 1408 1406 1403 ] final -143.08 input -179.99 | X-H torsion
[ 2830 2825 2824 2821 ] final -138.95 input -179.98 | X-H torsion
[ 2723 2714 2713 2711 ] final -170.69 input -179.98 | X-H torsion
[ 2773 2768 2767 2764 ] final -107.02 input  180.00 | X-H torsion

> <Gold.Protein.ActiveResidues>
 TRP109  THR110  ASP113  VAL114  VAL117  THR118  PHE193  TYR199  SER203  SER207 
 PHE208  TRP286  PHE289  PHE290  ASN293  TYR308  ASN312  TYR316 

> <Gold.Protein.RotatedAtoms>
  -33.9091    3.6520    1.8309 H   0  0  0  0  0  0  0  0  0  0  0  0  # atno 1294 bound_to 1290
  -26.7174   14.8161    2.0193 H   0  0  0  0  0  0  0  0  0  0  0  0  # atno 1412 bound_to 1408
  -26.7683    7.5416    2.8863 H   0  0  0  0  0  0  0  0  0  0  0  0  # atno 2723 bound_to 2714
  -24.5733   10.0153    3.8426 H   0  0  0  0  0  0  0  0  0  0  0  0  # atno 2773 bound_to 2768
  -25.0818   13.4210    2.4242 H   0  0  0  0  0  0  0  0  0  0  0  0  # atno 2830 bound_to 2825
  -28.8741    5.4644   10.6547 H   0  0  0  0  0  0  0  0  0  0  0  0  # atno 4033 bound_to 4024
  -36.0982    9.1721    7.7174 H   0  0  0  0  0  0  0  0  0  0  0  0  # atno 4175 bound_to 4166
  -37.5849    8.9642    7.1630 LP  0  0  0  0  0  0  0  0  0  0  0  0  # atno 4597 bound_to 4166
  -37.1028    8.2419    8.5459 LP  0  0  0  0  0  0  0  0  0  0  0  0  # atno 4598 bound_to 4166
  -35.2448    4.1405    1.0970 LP  0  0  0  0  0  0  0  0  0  0  0  0  # atno 4603 bound_to 1290
  -34.8570    4.7008    2.5810 LP  0  0  0  0  0  0  0  0  0  0  0  0  # atno 4604 bound_to 1290
  -27.7316    6.1946   11.5054 LP  0  0  0  0  0  0  0  0  0  0  0  0  # atno 4607 bound_to 4024
  -29.1006    6.9859   11.0976 LP  0  0  0  0  0  0  0  0  0  0  0  0  # atno 4608 bound_to 4024
  -28.2870   14.5694    2.2110 LP  0  0  0  0  0  0  0  0  0  0  0  0  # atno 4611 bound_to 1408
  -27.3865   15.1879    3.4247 LP  0  0  0  0  0  0  0  0  0  0  0  0  # atno 4612 bound_to 1408
  -23.7835   12.7910    3.1153 LP  0  0  0  0  0  0  0  0  0  0  0  0  # atno 4613 bound_to 2825
  -23.6576   14.0903    2.1342 LP  0  0  0  0  0  0  0  0  0  0  0  0  # atno 4614 bound_to 2825

> <Gold.Score>
     Score         DG    S(hbond)    S(metal)    S(lipo)     H(rot)  DE(clash)    DE(int)     intcor
     38.45     -41.82       4.18        0.00     258.67       3.08       1.55       1.82       0.21

> <Gold.Chemscore.Fitness>
38.4533

> <Gold.Chemscore.DG>
-41.8191

> <Gold.Chemscore.ZeroCoef>
-5.4800

> <Gold.Chemscore.Hbond>
4.1802

> <Gold.Chemscore.Metal>
0.0000

> <Gold.Chemscore.Lipo>
258.6693

> <Gold.Chemscore.Internal_Hbond>
0.0000

> <Gold.Chemscore.DEClash>
1.5458

> <Gold.Chemscore.DEInternal>
1.8201

> <Gold.Chemscore.Rot>
3.0808

> <Gold.Chemscore.Internal.Correction>
0.2125

> <Gold.Chemscore.Hbonds>
donor molecule, donor type, donor heavy atom, donor atom, acceptor molecule, acceptor atom, score
      L1  H    21    50       P1  4098  0.98
      L1  H    24    52       P1  1343  0.98
      L1  H    25    53       P1  1334  0.97
      P1  H  4097  4104       L1    25  0.36
      P1  H  2768  2773       L1    23  0.88

> <Gold.Chemscore.Hbond.Weighted>
-13.9617

> <Gold.Chemscore.Metal.Weighted>
-0.0000

> <Gold.Chemscore.Lipo.Weighted>
-30.2643

> <Gold.Chemscore.Internal_Hbond.Weighted>
0.0000

> <Gold.Chemscore.DEClash.Weighted>
1.5458

> <Gold.Chemscore.DEInternal.Weighted>
1.8201

> <Gold.Chemscore.Rot.Weighted>
7.8869

> <Gold.Chemscore.Internal.Correction.Weighted>
0.2125

