#       Name:                C:\Users\porto\OneDrive\projekt\beta2\ligandy\L_3ny9.pdb L_3ny9.pdb 1
#       Creating user name   student
#       Creation time:       Mon Apr 01 15:47:05 2019


#       File generated by GOLD software.
#

@<TRIPOS>MOLECULE
C:\Users\porto\OneDrive\projekt\beta2\ligandy\L_3ny9.pdb L_3ny9.pdb 1|3ny9|mol2|1|dock1
    58    59     1
SMALL
GASTEIGER


@<TRIPOS>ATOM
      1 C1         -34.2975   3.3847   8.9207 C.2            1 <1>                0.3751
      2 N1         -28.4309  11.1391   6.8231 N.3            1 <1>               -0.3112
      3 O1         -35.1638   2.6088   8.5542 O.2            1 <1>               -0.2415
      4 C2         -34.1822   2.3188  11.2129 C.3            1 <1>                0.0901
      5 O2         -33.7156   3.2775  10.2548 O.3            1 <1>               -0.4593
      6 C3         -33.1889   2.2194  12.3523 C.3            1 <1>               -0.0306
      7 O3         -34.3850   4.6359   6.7684 O.3            1 <1>               -0.4478
      8 C4         -33.8426   4.4545   8.0024 C.ar           1 <1>                0.2156
      9 O4         -31.0747   7.9891   7.3018 O.3            1 <1>               -0.4886
     10 C5         -32.8005   5.4897   8.1989 C.ar           1 <1>                0.0131
     11 O5         -31.9874  10.3406   7.2794 O.3            1 <1>               -0.3872
     12 C6         -31.8725   5.7984   9.3441 C.3            1 <1>               -0.0352
     13 C7         -32.7640   6.2694   7.0312 C.ar           1 <1>                0.0655
     14 C8         -33.7486   5.6786   6.2323 C.ar           1 <1>                0.1398
     15 C9         -34.0254   6.1728   4.9619 C.ar           1 <1>               -0.0185
     16 C10        -33.3051   7.2685   4.4839 C.ar           1 <1>               -0.0548
     17 C11        -32.3224   7.8631   5.2718 C.ar           1 <1>               -0.0191
     18 C12        -32.0399   7.3669   6.5460 C.ar           1 <1>                0.1316
     19 C13        -30.0944   8.9044   6.7970 C.3            1 <1>                0.1166
     20 C14        -30.7295  10.2840   6.6003 C.3            1 <1>                0.1015
     21 C15        -29.8447  11.4027   7.1437 C.3            1 <1>                0.0254
     22 C16        -28.0849  11.6610   5.4759 C.3            1 <1>                0.0021
     23 C17        -28.4063  13.1511   5.4046 C.3            1 <1>               -0.0499
     24 C18        -26.6145  11.4218   5.1457 C.3            1 <1>               -0.0499
     25 HN1        -27.8404  11.5909   7.5071 H              1 <1>                0.1223
     26 H21        -34.2827   1.3453  10.7331 H              1 <1>                0.0695
     27 H22        -35.1500   2.6355  11.6017 H              1 <1>                0.0695
     28 H31        -33.5434   1.4904  13.0814 H              1 <1>                0.0262
     29 H32        -32.2208   1.9039  11.9641 H              1 <1>                0.0262
     30 H33        -33.0870   3.1925  12.8322 H              1 <1>                0.0262
     31 HO5        -32.6499  10.7184   6.6965 H              1 <1>                0.2100
     32 H61        -31.2492   6.6552   9.0868 H              1 <1>                0.0279
     33 H62        -32.4580   6.0302  10.2342 H              1 <1>                0.0279
     34 H63        -31.2385   4.9338   9.5417 H              1 <1>                0.0279
     35 H9         -34.7904   5.7090   4.3571 H              1 <1>                0.0654
     36 H10        -33.5084   7.6605   3.4978 H              1 <1>                0.0620
     37 H11        -31.7726   8.7144   4.8982 H              1 <1>                0.0654
     38 H131       -29.7151   8.5400   5.8428 H              1 <1>                0.0723
     39 H132       -29.2703   8.9817   7.5063 H              1 <1>                0.0723
     40 H14        -30.8944  10.4490   5.5356 H              1 <1>                0.0640
     41 H151       -30.1467  12.3523   6.7006 H              1 <1>                0.0450
     42 H152       -29.9653  11.4683   8.2253 H              1 <1>                0.0450
     43 H16        -28.6938  11.1405   4.7374 H              1 <1>                0.0455
     44 H171       -28.1513  13.5311   4.4152 H              1 <1>                0.0245
     45 H172       -29.4700  13.3028   5.5890 H              1 <1>                0.0245
     46 H173       -27.8279  13.6850   6.1581 H              1 <1>                0.0245
     47 H181       -26.3959  11.8159   4.1529 H              1 <1>                0.0245
     48 H182       -25.9897  11.9262   5.8825 H              1 <1>                0.0245
     49 H183       -26.4070  10.3520   5.1656 H              1 <1>                0.0245
     50 ****       -28.2870  10.1495   6.8354 LP             1 <1>                0.0000
     51 ****       -35.4833   1.8887   9.1701 LP             1 <1>                0.0000
     52 ****       -35.5547   2.6925   7.6376 LP             1 <1>                0.0000
     53 ****       -35.3633   4.8285   6.8446 LP             1 <1>                0.0000
     54 ****       -34.2487   3.8200   6.2064 LP             1 <1>                0.0000
     55 ****       -30.5536   7.2499   7.7285 LP             1 <1>                0.0000
     56 ****       -31.5733   8.4949   8.0058 LP             1 <1>                0.0000
     57 ****       -31.8994  10.9097   8.0968 LP             1 <1>                0.0000
     58 ****       -32.2647   9.4171   7.5444 LP             1 <1>                0.0000
@<TRIPOS>BOND
    1    1    3 2     
    2    1    5 1     
    3    1    8 1     
    4    2   21 1     
    5    2   22 1     
    6    2   25 1     
    7    4    5 1     
    8    4    6 1     
    9    4   26 1     
   10    4   27 1     
   11    6   28 1     
   12    6   29 1     
   13    6   30 1     
   14    7    8 ar    
   15    7   14 ar    
   16    8   10 ar    
   17    9   18 1     
   18    9   19 1     
   19   10   12 1     
   20   10   13 ar    
   21   11   20 1     
   22   11   31 1     
   23   12   32 1     
   24   12   33 1     
   25   12   34 1     
   26   13   14 ar    
   27   13   18 ar    
   28   14   15 ar    
   29   15   16 ar    
   30   15   35 1     
   31   16   17 ar    
   32   16   36 1     
   33   17   18 ar    
   34   17   37 1     
   35   19   20 1     
   36   19   38 1     
   37   19   39 1     
   38   20   21 1     
   39   20   40 1     
   40   21   41 1     
   41   21   42 1     
   42   22   23 1     
   43   22   24 1     
   44   22   43 1     
   45   23   44 1     
   46   23   45 1     
   47   23   46 1     
   48   24   47 1     
   49   24   48 1     
   50   24   49 1     
   51    2   50 1     
   52    3   51 1     
   53    3   52 1     
   54    7   53 1     
   55    7   54 1     
   56    9   55 1     
   57    9   56 1     
   58   11   57 1     
   59   11   58 1     
@<TRIPOS>SUBSTRUCTURE
      1 ****           1
@<TRIPOS>SET
LONE_PAIRS      STATIC     ATOMS    <user>   **** ""
9 50 51 52 53 54 55 56 57 58
DONOR_HYDROGENS      STATIC     ATOMS    <user>   **** ""
2 25 31
ATOM$BLUE        STATIC     ATOMS    COLORGROUP SYSTEM
9 50 51 52 53 54 55 56 57 58
ATOM$RED        STATIC     ATOMS    COLORGROUP SYSTEM
2 25 31
@<TRIPOS>COMMENT
> <Gold.Version>
5.5

> <Gold.Id.Protein>
unknown|dok_beta2|pdb

> <Gold.Protein.RotatedTorsions>
[ 4175 4166 4165 4163 ] final  128.29 input -179.98 | X-H torsion
[ 1294 1290 1288 1285 ] final  -40.66 input -179.99 | X-H torsion
[ 4033 4024 4023 4021 ] final  -85.85 input  179.98 | X-H torsion
[ 1412 1408 1406 1403 ] final  -10.34 input -179.99 | X-H torsion
[ 2830 2825 2824 2821 ] final -171.48 input -179.98 | X-H torsion
[ 2723 2714 2713 2711 ] final   67.00 input -179.98 | X-H torsion
[ 2773 2768 2767 2764 ] final -157.21 input  180.00 | X-H torsion

> <Gold.Protein.ActiveResidues>
 TRP109  THR110  ASP113  VAL114  VAL117  THR118  PHE193  TYR199  SER203  SER207 
 PHE208  TRP286  PHE289  PHE290  ASN293  TYR308  ASN312  TYR316 

> <Gold.Protein.RotatedAtoms>
  -34.9236    4.7166    2.4970 H   0  0  0  0  0  0  0  0  0  0  0  0  # atno 1294 bound_to 1290
  -27.5888   15.1500    3.3898 H   0  0  0  0  0  0  0  0  0  0  0  0  # atno 1412 bound_to 1408
  -26.7429    7.1748    1.3443 H   0  0  0  0  0  0  0  0  0  0  0  0  # atno 2723 bound_to 2714
  -24.7347    9.4973    3.2997 H   0  0  0  0  0  0  0  0  0  0  0  0  # atno 2773 bound_to 2768
  -24.9790   13.0368    2.7382 H   0  0  0  0  0  0  0  0  0  0  0  0  # atno 2830 bound_to 2825
  -28.0440    5.4700   11.0855 H   0  0  0  0  0  0  0  0  0  0  0  0  # atno 4033 bound_to 4024
  -36.9836    9.2807    7.0451 H   0  0  0  0  0  0  0  0  0  0  0  0  # atno 4175 bound_to 4166
  -37.6596    8.3102    8.1231 LP  0  0  0  0  0  0  0  0  0  0  0  0  # atno 4597 bound_to 4166
  -36.1051    8.7828    8.2866 LP  0  0  0  0  0  0  0  0  0  0  0  0  # atno 4598 bound_to 4166
  -33.8645    3.6594    1.9294 LP  0  0  0  0  0  0  0  0  0  0  0  0  # atno 4603 bound_to 1290
  -35.1800    4.0725    1.0545 LP  0  0  0  0  0  0  0  0  0  0  0  0  # atno 4604 bound_to 1290
  -28.2919    6.9913   11.5173 LP  0  0  0  0  0  0  0  0  0  0  0  0  # atno 4607 bound_to 4024
  -29.4050    6.1834   10.6370 LP  0  0  0  0  0  0  0  0  0  0  0  0  # atno 4608 bound_to 4024
  -26.5885   14.8821    2.1696 LP  0  0  0  0  0  0  0  0  0  0  0  0  # atno 4611 bound_to 1408
  -28.1770   14.5272    2.0380 LP  0  0  0  0  0  0  0  0  0  0  0  0  # atno 4612 bound_to 1408
  -23.3933   13.1020    2.9419 LP  0  0  0  0  0  0  0  0  0  0  0  0  # atno 4613 bound_to 2825
  -24.1549   14.1799    1.9803 LP  0  0  0  0  0  0  0  0  0  0  0  0  # atno 4614 bound_to 2825

> <Gold.Score>
     Score     S(PLP)   S(hbond)     S(cho)   S(metal)  DE(clash)   DE(tors)     intcor
     72.59     -71.56       1.00       0.00       0.00       0.00       1.32       0.67

> <Gold.PLP.Fitness>
72.5936

> <Gold.PLP.PLP>
-71.5594

> <Gold.PLP.part.hbond>
-1.0000

> <Gold.PLP.part.metal>
0.0000

> <Gold.PLP.part.buried>
-8.2896

> <Gold.PLP.part.nonpolar>
-63.5465

> <Gold.PLP.part.repulsive>
0.1797

> <Gold.PLP.ligand.clash>
0.0000

> <Gold.PLP.ligand.torsion>
1.3176

> <Gold.PLP.Chemscore.Hbond>
1.0000

> <Gold.PLP.Chemscore.CHOScore>
0.0000

> <Gold.PLP.Chemscore.Metal>
0.0000

> <Gold.Chemscore.Hbonds>
donor molecule, donor type, donor heavy atom, donor atom, acceptor molecule, acceptor atom, score
      L1  H    11    31       P1  1334  1.00

> <Gold.PLP.Chemscore.Internal.Correction>
0.6693

