#       Name:                C:\Users\porto\OneDrive\projekt\beta2\ligandy\L_3nya.pdb L_3nya.pdb 1
#       Creating user name   student
#       Creation time:       Mon Apr 08 15:43:09 2019


#       File generated by GOLD software.
#

@<TRIPOS>MOLECULE
C:\Users\porto\OneDrive\projekt\beta2\ligandy\L_3nya.pdb L_3nya.pdb 1|3nya|mol2|1|dock3
    46    46     1
SMALL
GASTEIGER


@<TRIPOS>ATOM
      1 C1         -32.0464   6.1993   7.9955 C.3            1 <1>               -0.0499
      2 N1         -33.3544   8.2293   7.4466 N.3            1 <1>               -0.3112
      3 O1         -33.1143  10.7091   8.3938 O.3            1 <1>               -0.3872
      4 C2         -33.1933   6.7861   7.1708 C.3            1 <1>                0.0021
      5 O2         -29.8386  10.6085   6.7795 O.3            1 <1>               -0.4891
      6 C3         -32.9496   6.5946   5.6777 C.3            1 <1>               -0.0499
      7 C4         -32.1957   8.9874   6.9560 C.3            1 <1>                0.0254
      8 C5         -31.8975  10.1384   7.9017 C.3            1 <1>                0.1015
      9 C6         -31.1010  11.1722   7.1297 C.3            1 <1>                0.1166
     10 C7         -28.8232  11.3646   6.2481 C.ar           1 <1>                0.1241
     11 C8         -29.0353  12.7061   5.9361 C.ar           1 <1>               -0.0197
     12 C9         -28.0091  13.4700   5.3967 C.ar           1 <1>               -0.0583
     13 C10        -26.7630  12.9022   5.1685 C.ar           1 <1>               -0.0613
     14 C11        -26.5433  11.5713   5.4802 C.ar           1 <1>               -0.0548
     15 C12        -27.5703  10.8001   6.0209 C.ar           1 <1>               -0.0020
     16 C13        -27.2992   9.3520   6.3538 C.3            1 <1>               -0.0063
     17 C14        -25.8989   9.2299   6.8963 C.2            1 <1>               -0.0867
     18 C15        -24.9902   8.5275   6.2488 C.2            1 <1>               -0.1023
     19 H11        -31.9474   5.1359   7.7759 H              1 <1>                0.0245
     20 H12        -31.1179   6.7110   7.7428 H              1 <1>                0.0245
     21 H13        -32.2560   6.3320   9.0571 H              1 <1>                0.0245
     22 HN1        -34.1852   8.5703   6.9841 H              1 <1>                0.1223
     23 HO1        -33.6553  10.9959   7.6546 H              1 <1>                0.2100
     24 H2         -34.1167   6.2738   7.4423 H              1 <1>                0.0455
     25 H31        -33.7801   7.0207   5.1157 H              1 <1>                0.0245
     26 H32        -32.0239   7.0957   5.3931 H              1 <1>                0.0245
     27 H33        -32.8694   5.5306   5.4558 H              1 <1>                0.0245
     28 H41        -32.4129   9.3806   5.9626 H              1 <1>                0.0450
     29 H42        -31.3281   8.3291   6.9004 H              1 <1>                0.0450
     30 H5         -31.3026   9.7747   8.7397 H              1 <1>                0.0640
     31 H61        -31.6415  11.4437   6.2225 H              1 <1>                0.0723
     32 H62        -30.9450  12.0516   7.7543 H              1 <1>                0.0723
     33 H8         -30.0012  13.1559   6.1142 H              1 <1>                0.0654
     34 H9         -28.1790  14.5084   5.1538 H              1 <1>                0.0619
     35 H10        -25.9670  13.4980   4.7486 H              1 <1>                0.0618
     36 H11        -25.5740  11.1284   5.3045 H              1 <1>                0.0622
     37 H131       -27.3928   8.7478   5.4507 H              1 <1>                0.0357
     38 H132       -28.0109   9.0134   7.1061 H              1 <1>                0.0357
     39 H14        -25.6414   9.7232   7.8220 H              1 <1>                0.0570
     40 H151       -23.9885   8.4452   6.6449 H              1 <1>                0.0532
     41 H152       -25.2477   8.0343   5.3231 H              1 <1>                0.0532
     42 ****       -33.4305   8.3534   8.4360 LP             1 <1>                0.0000
     43 ****       -32.9026  11.4940   8.9762 LP             1 <1>                0.0000
     44 ****       -33.6124  10.0242   8.9255 LP             1 <1>                0.0000
     45 ****       -30.0295   9.8887   6.1122 LP             1 <1>                0.0000
     46 ****       -29.4738  10.1993   7.6159 LP             1 <1>                0.0000
@<TRIPOS>BOND
    1    1    4 1     
    2    1   19 1     
    3    1   20 1     
    4    1   21 1     
    5    2    4 1     
    6    2    7 1     
    7    2   22 1     
    8    3    8 1     
    9    3   23 1     
   10    4    6 1     
   11    4   24 1     
   12    5    9 1     
   13    5   10 1     
   14    6   25 1     
   15    6   26 1     
   16    6   27 1     
   17    7    8 1     
   18    7   28 1     
   19    7   29 1     
   20    8    9 1     
   21    8   30 1     
   22    9   31 1     
   23    9   32 1     
   24   10   11 ar    
   25   10   15 ar    
   26   11   12 ar    
   27   11   33 1     
   28   12   13 ar    
   29   12   34 1     
   30   13   14 ar    
   31   13   35 1     
   32   14   15 ar    
   33   14   36 1     
   34   15   16 1     
   35   16   17 1     
   36   16   37 1     
   37   16   38 1     
   38   17   18 2     
   39   17   39 1     
   40   18   40 1     
   41   18   41 1     
   42    2   42 1     
   43    3   43 1     
   44    3   44 1     
   45    5   45 1     
   46    5   46 1     
@<TRIPOS>SUBSTRUCTURE
      1 ****           1
@<TRIPOS>SET
LONE_PAIRS      STATIC     ATOMS    <user>   **** ""
5 42 43 44 45 46
DONOR_HYDROGENS      STATIC     ATOMS    <user>   **** ""
2 22 23
ATOM$BLUE        STATIC     ATOMS    COLORGROUP SYSTEM
5 42 43 44 45 46
ATOM$RED        STATIC     ATOMS    COLORGROUP SYSTEM
2 22 23
@<TRIPOS>COMMENT
> <Gold.Version>
5.5

> <Gold.Id.Protein>
unknown|dok_beta2|pdb

> <Gold.Protein.RotatedTorsions>
[ 4175 4166 4165 4163 ] final  -26.75 input -179.98 | X-H torsion
[ 1294 1290 1288 1285 ] final   70.34 input -179.99 | X-H torsion
[ 4033 4024 4023 4021 ] final  -26.64 input  179.98 | X-H torsion
[ 1412 1408 1406 1403 ] final  167.66 input -179.99 | X-H torsion
[ 2830 2825 2824 2821 ] final  117.58 input -179.98 | X-H torsion
[ 2723 2714 2713 2711 ] final  165.60 input -179.98 | X-H torsion
[ 2773 2768 2767 2764 ] final   84.34 input  180.00 | X-H torsion

> <Gold.Protein.ActiveResidues>
 TRP109  THR110  ASP113  VAL114  VAL117  THR118  PHE193  TYR199  SER203  SER207 
 PHE208  TRP286  PHE289  PHE290  ASN293  TYR308  ASN312  TYR316 

> <Gold.Protein.RotatedAtoms>
  -35.2399    4.1791    1.1421 H   0  0  0  0  0  0  0  0  0  0  0  0  # atno 1294 bound_to 1290
  -27.3518   14.5733    1.6911 H   0  0  0  0  0  0  0  0  0  0  0  0  # atno 1412 bound_to 1408
  -26.9351    7.2667    2.6998 H   0  0  0  0  0  0  0  0  0  0  0  0  # atno 2723 bound_to 2714
  -23.9145   10.1913    2.1760 H   0  0  0  0  0  0  0  0  0  0  0  0  # atno 2773 bound_to 2768
  -24.0477   12.7434    3.1235 H   0  0  0  0  0  0  0  0  0  0  0  0  # atno 2830 bound_to 2825
  -28.8340    5.4425   10.6671 H   0  0  0  0  0  0  0  0  0  0  0  0  # atno 4033 bound_to 4024
  -37.2246    8.2624    8.4686 H   0  0  0  0  0  0  0  0  0  0  0  0  # atno 4175 bound_to 4166
  -36.0276    9.1102    7.8289 LP  0  0  0  0  0  0  0  0  0  0  0  0  # atno 4597 bound_to 4166
  -37.4858    9.0443    7.0969 LP  0  0  0  0  0  0  0  0  0  0  0  0  # atno 4598 bound_to 4166
  -34.8190    4.6858    2.6006 LP  0  0  0  0  0  0  0  0  0  0  0  0  # atno 4603 bound_to 1290
  -33.8958    3.6062    1.7952 LP  0  0  0  0  0  0  0  0  0  0  0  0  # atno 4604 bound_to 1290
  -27.7394    6.2414   11.5191 LP  0  0  0  0  0  0  0  0  0  0  0  0  # atno 4607 bound_to 4024
  -29.1346    6.9620   11.0710 LP  0  0  0  0  0  0  0  0  0  0  0  0  # atno 4608 bound_to 4024
  -28.3043   14.8368    2.9499 LP  0  0  0  0  0  0  0  0  0  0  0  0  # atno 4611 bound_to 1408
  -26.7083   15.1734    3.0279 LP  0  0  0  0  0  0  0  0  0  0  0  0  # atno 4612 bound_to 1408
  -23.4605   13.9611    2.2675 LP  0  0  0  0  0  0  0  0  0  0  0  0  # atno 4613 bound_to 2825
  -25.0588   13.6267    2.2530 LP  0  0  0  0  0  0  0  0  0  0  0  0  # atno 4614 bound_to 2825

> <Gold.Score>
     Score     S(PLP)   S(hbond)     S(cho)   S(metal)  DE(clash)   DE(tors)     intcor
     74.26     -67.16       2.87       0.00       0.00       0.00       0.88       0.24

> <Gold.PLP.Fitness>
74.2618

> <Gold.PLP.PLP>
-67.1645

> <Gold.PLP.part.hbond>
-4.4540

> <Gold.PLP.part.metal>
0.0000

> <Gold.PLP.part.buried>
-8.2050

> <Gold.PLP.part.nonpolar>
-56.3620

> <Gold.PLP.part.repulsive>
0.0129

> <Gold.PLP.ligand.clash>
0.0000

> <Gold.PLP.ligand.torsion>
0.8783

> <Gold.PLP.Chemscore.Hbond>
2.8713

> <Gold.PLP.Chemscore.CHOScore>
0.0000

> <Gold.PLP.Chemscore.Metal>
0.0000

> <Gold.Chemscore.Hbonds>
donor molecule, donor type, donor heavy atom, donor atom, acceptor molecule, acceptor atom, score
      L1  H     2    22       P1  1335  0.99
      L1  H     3    23       P1  1334  1.00
      P1  H  4097  4104       L1     3  0.88

> <Gold.PLP.Chemscore.Internal.Correction>
0.2401

