#       Name:                C:\Users\porto\OneDrive\projekt\beta1\ligandy\L_2y02.pdb L_2y02.pdb 1
#       Creating user name   student
#       Creation time:       Mon Apr 08 16:28:03 2019


#       File generated by GOLD software.
#

@<TRIPOS>MOLECULE
C:\Users\porto\OneDrive\projekt\beta1\ligandy\L_2y02.pdb L_2y02.pdb 1|2y02|mol2|1|dock1
    60    62     1
SMALL
GASTEIGER


@<TRIPOS>ATOM
      1 C1         -23.2998  10.2016  22.6592 C.ar           1 <1>               -0.0471
      2 N1         -24.5165  12.7278  22.9745 N.am           1 <1>               -0.3192
      3 O1         -24.5455  12.3467  25.1862 O.2            1 <1>               -0.2679
      4 C2         -23.5676  10.9777  21.5372 C.ar           1 <1>                0.0078
      5 N2         -22.9748   7.6180  18.0239 N.3            1 <1>               -0.3104
      6 O2         -25.0807  14.3347  20.7660 O.3            1 <1>               -0.5047
      7 C3         -23.2370  10.5625  20.1345 C.ar           1 <1>               -0.0086
      8 O3         -23.0853   3.0609  11.8333 O.3            1 <1>               -0.4951
      9 C4         -23.5536  11.4529  19.0867 C.ar           1 <1>               -0.0519
     10 O4         -23.3087   8.1684  20.4513 O.3            1 <1>               -0.3859
     11 C5         -24.1541  12.6937  19.2823 C.ar           1 <1>               -0.0178
     12 C6         -24.4817  13.1426  20.5632 C.ar           1 <1>                0.1407
     13 C7         -24.2024  12.3070  21.7455 C.ar           1 <1>                0.0915
     14 C8         -23.6466  10.6968  23.9142 C.ar           1 <1>                0.0034
     15 C9         -24.2489  11.9493  24.0425 C.ar           1 <1>                0.2493
     16 C10        -22.5787   9.2490  19.8507 C.3            1 <1>                0.0932
     17 C11        -22.5758   8.9868  18.3465 C.3            1 <1>                0.0264
     18 C12        -22.5895   6.9985  16.7532 C.3            1 <1>                0.0089
     19 C13        -21.2619   7.5255  16.1983 C.3            1 <1>               -0.0494
     20 C14        -23.6903   7.1722  15.7069 C.3            1 <1>               -0.0125
     21 C15        -23.5208   6.0886  14.6679 C.ar           1 <1>               -0.0457
     22 C16        -23.4480   4.7604  15.0763 C.ar           1 <1>               -0.0551
     23 C17        -23.3061   3.7474  14.1292 C.ar           1 <1>               -0.0197
     24 C18        -23.2343   4.0653  12.7702 C.ar           1 <1>                0.1201
     25 C19        -23.3096   5.4004  12.3619 C.ar           1 <1>               -0.0197
     26 C20        -23.4477   6.4112  13.3081 C.ar           1 <1>               -0.0551
     27 C21        -23.0061   1.6861  12.2314 C.3            1 <1>                0.0788
     28 H1         -22.8321   9.2349  22.5479 H              1 <1>                0.0626
     29 HN1        -24.9540  13.6289  23.1027 H              1 <1>                0.1690
     30 HN2        -23.9816   7.6449  18.0943 H              1 <1>                0.1223
     31 HO2        -25.9084  14.3639  20.2811 H              1 <1>                0.2922
     32 H4         -23.3296  11.1848  18.0648 H              1 <1>                0.0622
     33 HO4        -24.1915   8.1296  20.0756 H              1 <1>                0.2103
     34 H5         -24.3741  13.3272  18.4354 H              1 <1>                0.0655
     35 H8         -23.4494  10.1104  24.7996 H              1 <1>                0.0672
     36 H10        -21.5557   9.2583  20.2272 H              1 <1>                0.0656
     37 H111       -23.2516   9.6867  17.8547 H              1 <1>                0.0453
     38 H112       -21.5800   9.1777  17.9470 H              1 <1>                0.0453
     39 H12        -22.4704   5.9298  16.9309 H              1 <1>                0.0461
     40 H131       -21.0366   7.0248  15.2567 H              1 <1>                0.0245
     41 H132       -21.3390   8.5989  16.0292 H              1 <1>                0.0245
     42 H133       -20.4640   7.3274  16.9139 H              1 <1>                0.0245
     43 H141       -23.5897   8.1488  15.2331 H              1 <1>                0.0328
     44 H142       -24.6644   7.0679  16.1844 H              1 <1>                0.0328
     45 H16        -23.5012   4.5144  16.1269 H              1 <1>                0.0621
     46 H17        -23.2515   2.7164  14.4461 H              1 <1>                0.0654
     47 H19        -23.2605   5.6478  11.3117 H              1 <1>                0.0654
     48 H20        -23.4984   7.4436  12.9944 H              1 <1>                0.0621
     49 H211       -22.8907   1.0574  11.3486 H              1 <1>                0.0660
     50 H212       -22.1491   1.5467  12.8904 H              1 <1>                0.0660
     51 H213       -23.9179   1.4067  12.7588 H              1 <1>                0.0660
     52 ****       -24.9798  13.2391  25.3084 LP             1 <1>                0.0000
     53 ****       -24.3490  11.7731  25.9814 LP             1 <1>                0.0000
     54 ****       -22.4707   7.0276  18.6543 LP             1 <1>                0.0000
     55 ****       -24.4807  15.0678  20.4456 LP             1 <1>                0.0000
     56 ****       -25.2619  14.4548  21.7420 LP             1 <1>                0.0000
     57 ****       -23.8663   3.1327  11.2128 LP             1 <1>                0.0000
     58 ****       -22.2428   3.2612  11.3332 LP             1 <1>                0.0000
     59 ****       -23.3730   8.3176  21.4381 LP             1 <1>                0.0000
     60 ****       -22.8333   7.3065  20.2748 LP             1 <1>                0.0000
@<TRIPOS>BOND
    1    1    4 ar    
    2    1   14 ar    
    3    1   28 1     
    4    2   13 ar    
    5    2   15 am    
    6    2   29 1     
    7    3   15 2     
    8    4    7 ar    
    9    4   13 ar    
   10    5   18 1     
   11    5   17 1     
   12    5   30 1     
   13    6   12 1     
   14    6   31 1     
   15    7   16 1     
   16    7    9 ar    
   17    8   27 1     
   18    8   24 1     
   19    9   11 ar    
   20    9   32 1     
   21   10   16 1     
   22   10   33 1     
   23   11   12 ar    
   24   11   34 1     
   25   12   13 ar    
   26   14   15 ar    
   27   14   35 1     
   28   16   17 1     
   29   16   36 1     
   30   17   37 1     
   31   17   38 1     
   32   18   19 1     
   33   18   20 1     
   34   18   39 1     
   35   19   40 1     
   36   19   41 1     
   37   19   42 1     
   38   20   21 1     
   39   20   43 1     
   40   20   44 1     
   41   21   22 ar    
   42   21   26 ar    
   43   22   23 ar    
   44   22   45 1     
   45   23   24 ar    
   46   23   46 1     
   47   24   25 ar    
   48   25   26 ar    
   49   25   47 1     
   50   26   48 1     
   51   27   49 1     
   52   27   50 1     
   53   27   51 1     
   54    3   52 1     
   55    3   53 1     
   56    5   54 1     
   57    6   55 1     
   58    6   56 1     
   59    8   57 1     
   60    8   58 1     
   61   10   59 1     
   62   10   60 1     
@<TRIPOS>SUBSTRUCTURE
      1 ****           1
@<TRIPOS>SET
LONE_PAIRS      STATIC     ATOMS    <user>   **** ""
9 52 53 54 55 56 57 58 59 60
DONOR_HYDROGENS      STATIC     ATOMS    <user>   **** ""
4 29 30 31 33
ATOM$BLUE        STATIC     ATOMS    COLORGROUP SYSTEM
9 52 53 54 55 56 57 58 59 60
ATOM$RED        STATIC     ATOMS    COLORGROUP SYSTEM
4 29 30 31 33
@<TRIPOS>COMMENT
> <Gold.Version>
5.5

> <Gold.Id.Protein>
unknown|bialko_beta1|pdb

> <Gold.Protein.ActiveResidues>
 ALA86   ASP87   VAL90   VAL94   VAL95   GLY98   ALA99   LEU101  VAL102  CYS114 
 GLU115  TRP117  THR118  SER119  LEU120  ASP121  VAL122  CYS124  VAL125  THR126 
 SER128  SER173  PHE174  ILE177  CYS199  ASP200  PHE201  TYR207  SER215  PHE299 
 TRP303  PHE306  PHE307  ASN310  PHE325  VAL326  ASN329  TRP330  GLY332  TYR333 
 SER336 

> <Gold.Score>
     Score     S(PLP)   S(hbond)     S(cho)   S(metal)  DE(clash)   DE(tors)     intcor
     80.82     -77.74       1.65       0.00       0.00       0.00       1.55       1.23

> <Gold.PLP.Fitness>
80.8189

> <Gold.PLP.PLP>
-77.7367

> <Gold.PLP.part.hbond>
-4.6284

> <Gold.PLP.part.metal>
0.0000

> <Gold.PLP.part.buried>
-7.7824

> <Gold.PLP.part.nonpolar>
-65.1194

> <Gold.PLP.part.repulsive>
0.2733

> <Gold.PLP.ligand.clash>
0.0000

> <Gold.PLP.ligand.torsion>
1.5539

> <Gold.PLP.Chemscore.Hbond>
1.6521

> <Gold.PLP.Chemscore.CHOScore>
0.0000

> <Gold.PLP.Chemscore.Metal>
0.0000

> <Gold.Chemscore.Hbonds>
donor molecule, donor type, donor heavy atom, donor atom, acceptor molecule, acceptor atom, score
      L1  H     5    30       P1  2066  0.65
      L1  H    10    33       P1  2066  1.00

> <Gold.PLP.Chemscore.Internal.Correction>
1.2338

