#       Name:                C:\Users\porto\OneDrive\projekt\beta2\ligandy\L_4ldo.pdb L_4ldo.pdb 1
#       Creating user name   student
#       Creation time:       Mon Apr 08 16:05:41 2019


#       File generated by GOLD software.
#

@<TRIPOS>MOLECULE
C:\Users\porto\OneDrive\projekt\beta2\ligandy\L_4ldo.pdb L_4ldo.pdb 1|4ldo|mol2|1|dock6
    33    33     1
SMALL
GASTEIGER


@<TRIPOS>ATOM
      1 C1         -29.2373   9.9475   7.3827 C.ar           1 <1>               -0.0143
      2 N1         -26.5351   8.2051   5.6391 N.3            1 <1>               -0.3162
      3 O1         -32.5071   8.3633   7.8605 O.3            1 <1>               -0.5033
      4 C2         -30.1937   8.9424   7.4949 C.ar           1 <1>               -0.0109
      5 O2         -33.2011  10.8738   8.1012 O.3            1 <1>               -0.5033
      6 C3         -31.5181   9.2894   7.7374 C.ar           1 <1>                0.1586
      7 O3         -27.4434   8.6883   8.1310 O.3            1 <1>               -0.3859
      8 C4         -31.8852  10.6206   7.8645 C.ar           1 <1>                0.1582
      9 C5         -30.9363  11.6293   7.7524 C.ar           1 <1>               -0.0162
     10 C6         -29.6093  11.2836   7.5111 C.ar           1 <1>               -0.0524
     11 C7         -27.9092   9.6085   7.1400 C.3            1 <1>                0.0927
     12 C8         -27.7795   8.9790   5.7514 C.3            1 <1>                0.0258
     13 C9         -25.3896   9.0622   5.9730 C.3            1 <1>               -0.0157
     14 HN1        -26.5658   7.4233   6.2775 H              1 <1>                0.1217
     15 HO1        -33.0926   8.6137   8.5785 H              1 <1>                0.2923
     16 H2         -29.9033   7.9073   7.3937 H              1 <1>                0.0659
     17 HO2        -33.6919  10.8157   7.2782 H              1 <1>                0.2923
     18 HO3        -26.7748   8.1150   7.7474 H              1 <1>                0.2103
     19 H5         -31.2327  12.6634   7.8526 H              1 <1>                0.0655
     20 H6         -28.8664  12.0621   7.4238 H              1 <1>                0.0622
     21 H7         -27.3000  10.5108   7.1793 H              1 <1>                0.0656
     22 H81        -28.6312   8.3243   5.5689 H              1 <1>                0.0453
     23 H82        -27.7883   9.7640   4.9954 H              1 <1>                0.0453
     24 H91        -24.4674   8.4866   5.8892 H              1 <1>                0.0388
     25 H92        -25.3542   9.9062   5.2841 H              1 <1>                0.0388
     26 H93        -25.4957   9.4302   6.9937 H              1 <1>                0.0388
     27 ****       -26.4376   7.8689   4.7024 LP             1 <1>                0.0000
     28 ****       -32.1040   7.4692   8.0557 LP             1 <1>                0.0000
     29 ****       -33.0270   8.3155   7.0077 LP             1 <1>                0.0000
     30 ****       -33.3000  11.7923   8.4840 LP             1 <1>                0.0000
     31 ****       -33.5581  10.2019   8.7502 LP             1 <1>                0.0000
     32 ****       -28.2093   8.1347   8.4579 LP             1 <1>                0.0000
     33 ****       -27.0479   9.1954   8.8968 LP             1 <1>                0.0000
@<TRIPOS>BOND
    1    1    4 ar    
    2    1   10 ar    
    3    1   11 1     
    4    2   12 1     
    5    2   13 1     
    6    2   14 1     
    7    3    6 1     
    8    3   15 1     
    9    4    6 ar    
   10    4   16 1     
   11    5    8 1     
   12    5   17 1     
   13    6    8 ar    
   14    7   11 1     
   15    7   18 1     
   16    8    9 ar    
   17    9   10 ar    
   18    9   19 1     
   19   10   20 1     
   20   11   12 1     
   21   11   21 1     
   22   12   22 1     
   23   12   23 1     
   24   13   24 1     
   25   13   25 1     
   26   13   26 1     
   27    2   27 1     
   28    3   28 1     
   29    3   29 1     
   30    5   30 1     
   31    5   31 1     
   32    7   32 1     
   33    7   33 1     
@<TRIPOS>SUBSTRUCTURE
      1 ****           1
@<TRIPOS>SET
LONE_PAIRS      STATIC     ATOMS    <user>   **** ""
7 27 28 29 30 31 32 33
DONOR_HYDROGENS      STATIC     ATOMS    <user>   **** ""
4 14 15 17 18
ATOM$BLUE        STATIC     ATOMS    COLORGROUP SYSTEM
7 27 28 29 30 31 32 33
ATOM$RED        STATIC     ATOMS    COLORGROUP SYSTEM
4 14 15 17 18
@<TRIPOS>COMMENT
> <Gold.Version>
5.5

> <Gold.Id.Protein>
unknown|dok_beta2|pdb

> <Gold.Protein.RotatedTorsions>
[ 4175 4166 4165 4163 ] final  100.83 input -179.98 | X-H torsion
[ 1294 1290 1288 1285 ] final   89.22 input -179.99 | X-H torsion
[ 4033 4024 4023 4021 ] final -148.13 input  179.98 | X-H torsion
[ 1412 1408 1406 1403 ] final  154.33 input -179.99 | X-H torsion
[ 2830 2825 2824 2821 ] final   94.07 input -179.98 | X-H torsion
[ 2723 2714 2713 2711 ] final -113.53 input -179.98 | X-H torsion
[ 2773 2768 2767 2764 ] final -126.13 input  180.00 | X-H torsion

> <Gold.Protein.ActiveResidues>
 TRP109  THR110  ASP113  VAL114  VAL117  THR118  PHE193  TYR199  SER203  SER207 
 PHE208  TRP286  PHE289  PHE290  ASN293  TYR308  ASN312  TYR316 

> <Gold.Protein.RotatedAtoms>
  -35.0429    3.9847    1.0348 H   0  0  0  0  0  0  0  0  0  0  0  0  # atno 1294 bound_to 1290
  -27.5584   14.5382    1.7040 H   0  0  0  0  0  0  0  0  0  0  0  0  # atno 1412 bound_to 1408
  -26.2440    8.2146    2.7389 H   0  0  0  0  0  0  0  0  0  0  0  0  # atno 2723 bound_to 2714
  -24.6785    9.7785    3.6907 H   0  0  0  0  0  0  0  0  0  0  0  0  # atno 2773 bound_to 2768
  -23.7062   12.8750    3.0802 H   0  0  0  0  0  0  0  0  0  0  0  0  # atno 2830 bound_to 2825
  -27.7827    6.2580   11.5184 H   0  0  0  0  0  0  0  0  0  0  0  0  # atno 4033 bound_to 4024
  -37.3736    9.1062    7.0897 H   0  0  0  0  0  0  0  0  0  0  0  0  # atno 4175 bound_to 4166
  -37.3420    8.2295    8.4282 LP  0  0  0  0  0  0  0  0  0  0  0  0  # atno 4597 bound_to 4166
  -36.0161    9.0452    7.9350 LP  0  0  0  0  0  0  0  0  0  0  0  0  # atno 4598 bound_to 4166
  -35.0674    4.7626    2.4332 LP  0  0  0  0  0  0  0  0  0  0  0  0  # atno 4603 bound_to 1290
  -33.8527    3.7320    2.0744 LP  0  0  0  0  0  0  0  0  0  0  0  0  # atno 4604 bound_to 1290
  -29.1509    6.9493   11.0578 LP  0  0  0  0  0  0  0  0  0  0  0  0  # atno 4607 bound_to 4024
  -28.8182    5.4046   10.6457 LP  0  0  0  0  0  0  0  0  0  0  0  0  # atno 4608 bound_to 4024
  -28.1966   14.9203    3.1210 LP  0  0  0  0  0  0  0  0  0  0  0  0  # atno 4611 bound_to 1408
  -26.6007   15.1265    2.8433 LP  0  0  0  0  0  0  0  0  0  0  0  0  # atno 4612 bound_to 1408
  -23.7554   14.1291    2.0876 LP  0  0  0  0  0  0  0  0  0  0  0  0  # atno 4613 bound_to 2825
  -25.1199   13.3215    2.4781 LP  0  0  0  0  0  0  0  0  0  0  0  0  # atno 4614 bound_to 2825

> <Gold.Score>
     Score     S(PLP)   S(hbond)     S(cho)   S(metal)  DE(clash)   DE(tors)     intcor
     49.18     -39.60       3.53       0.00       0.00       0.00       0.51       0.00

> <Gold.PLP.Fitness>
49.1792

> <Gold.PLP.PLP>
-39.6009

> <Gold.PLP.part.hbond>
-4.0000

> <Gold.PLP.part.metal>
0.0000

> <Gold.PLP.part.buried>
-5.2389

> <Gold.PLP.part.nonpolar>
-31.4853

> <Gold.PLP.part.repulsive>
0.0000

> <Gold.PLP.ligand.clash>
0.0000

> <Gold.PLP.ligand.torsion>
0.5052

> <Gold.PLP.Chemscore.Hbond>
3.5280

> <Gold.PLP.Chemscore.CHOScore>
0.0000

> <Gold.PLP.Chemscore.Metal>
0.0000

> <Gold.Chemscore.Hbonds>
donor molecule, donor type, donor heavy atom, donor atom, acceptor molecule, acceptor atom, score
      L1  H     3    15       P1  4098  1.00
      L1  H     5    17       P1  1334  1.00
      P1  H  4097  4104       L1     5  1.00
      P1  H  3760  3767       L1     7  0.53

> <Gold.PLP.Chemscore.Internal.Correction>
0.0047

