#       Name:                C:\Users\porto\OneDrive\projekt\beta1\ligandy\L_2y02.pdb L_2y02.pdb 1
#       Creating user name   student
#       Creation time:       Mon Apr 08 14:36:43 2019


#       File generated by GOLD software.
#

@<TRIPOS>MOLECULE
C:\Users\porto\OneDrive\projekt\beta1\ligandy\L_2y02.pdb L_2y02.pdb 1|2y02|mol2|1|dock2
    60    62     1
SMALL
GASTEIGER


@<TRIPOS>ATOM
      1 C1         -24.4155   7.6755  13.0245 C.ar           1 <1>               -0.0471
      2 N1         -23.9313   6.9718  10.3353 N.am           1 <1>               -0.3192
      3 O1         -24.8201   8.9462   9.7442 O.2            1 <1>               -0.2679
      4 C2         -23.8332   6.4474  12.7321 C.ar           1 <1>                0.0078
      5 N2         -22.7994   7.1179  17.1083 N.3            1 <1>               -0.3104
      6 O2         -22.7662   4.5242   9.6799 O.3            1 <1>               -0.5047
      7 C3         -23.4224   5.4476  13.7718 C.ar           1 <1>               -0.0086
      8 O3         -24.4553  13.8232  20.0629 O.3            1 <1>               -0.4951
      9 C4         -22.8308   4.2428  13.3368 C.ar           1 <1>               -0.0519
     10 O4         -23.3183   4.5583  16.0158 O.3            1 <1>               -0.3859
     11 C5         -22.6070   3.9313  11.9984 C.ar           1 <1>               -0.0178
     12 C6         -22.9603   4.8208  10.9818 C.ar           1 <1>                0.1407
     13 C7         -23.5866   6.1166  11.3027 C.ar           1 <1>                0.0915
     14 C8         -24.7485   8.5261  11.9728 C.ar           1 <1>                0.0034
     15 C9         -24.4995   8.1532  10.6510 C.ar           1 <1>                0.2493
     16 C10        -23.6201   5.7211  15.2296 C.3            1 <1>                0.0932
     17 C11        -22.6567   6.8145  15.6855 C.3            1 <1>                0.0264
     18 C12        -22.3176   8.3860  17.6622 C.3            1 <1>                0.0089
     19 C13        -20.8104   8.5947  17.4803 C.3            1 <1>               -0.0494
     20 C14        -22.6792   8.5060  19.1425 C.3            1 <1>               -0.0125
     21 C15        -23.1659   9.9146  19.3906 C.ar           1 <1>               -0.0457
     22 C16        -22.2908  10.8507  19.9326 C.ar           1 <1>               -0.0551
     23 C17        -22.7198  12.1584  20.1544 C.ar           1 <1>               -0.0197
     24 C18        -24.0290  12.5290  19.8349 C.ar           1 <1>                0.1201
     25 C19        -24.9061  11.5871  19.2885 C.ar           1 <1>               -0.0197
     26 C20        -24.4781  10.2812  19.0709 C.ar           1 <1>               -0.0551
     27 C21        -24.6824  14.3015  21.3950 C.3            1 <1>                0.0788
     28 H1         -24.6020   7.9539  14.0508 H              1 <1>                0.0626
     29 HN1        -23.7658   6.7328   9.3682 H              1 <1>                0.1690
     30 HN2        -22.3238   6.3503  17.5601 H              1 <1>                0.1223
     31 HO2        -23.0700   5.2544   9.1362 H              1 <1>                0.2922
     32 H4         -22.5239   3.5010  14.0592 H              1 <1>                0.0622
     33 HO4        -23.4515   4.7564  16.9459 H              1 <1>                0.2103
     34 H5         -22.1527   2.9881  11.7317 H              1 <1>                0.0655
     35 H8         -25.2033   9.4844  12.1763 H              1 <1>                0.0672
     36 H10        -24.6484   6.0339  15.4117 H              1 <1>                0.0656
     37 H111       -21.6319   6.5032  15.4823 H              1 <1>                0.0453
     38 H112       -22.8321   7.7186  15.1028 H              1 <1>                0.0453
     39 H12        -22.8272   9.1910  17.1329 H              1 <1>                0.0461
     40 H131       -20.5209   9.5525  17.9127 H              1 <1>                0.0245
     41 H132       -20.2692   7.7924  17.9804 H              1 <1>                0.0245
     42 H133       -20.5677   8.5888  16.4178 H              1 <1>                0.0245
     43 H141       -21.7937   8.3154  19.7490 H              1 <1>                0.0328
     44 H142       -23.4749   7.8001  19.3800 H              1 <1>                0.0328
     45 H16        -21.2794  10.5642  20.1818 H              1 <1>                0.0621
     46 H17        -22.0400  12.8856  20.5733 H              1 <1>                0.0654
     47 H19        -25.9163  11.8729  19.0353 H              1 <1>                0.0654
     48 H20        -25.1571   9.5507  18.6558 H              1 <1>                0.0621
     49 H211       -25.0123  15.3396  21.3579 H              1 <1>                0.0660
     50 H212       -25.4504  13.6940  21.8740 H              1 <1>                0.0660
     51 H213       -23.7580  14.2351  21.9683 H              1 <1>                0.0660
     52 ****       -24.6555   8.7050   8.7878 LP             1 <1>                0.0000
     53 ****       -25.2418   9.8235   9.9731 LP             1 <1>                0.0000
     54 ****       -23.7799   7.2298  17.2699 LP             1 <1>                0.0000
     55 ****       -23.2795   3.6985   9.4461 LP             1 <1>                0.0000
     56 ****       -21.7921   4.3689   9.5151 LP             1 <1>                0.0000
     57 ****       -23.7666  14.4248  19.6583 LP             1 <1>                0.0000
     58 ****       -25.3199  13.9285  19.5716 LP             1 <1>                0.0000
     59 ****       -22.3664   4.2920  15.8648 LP             1 <1>                0.0000
     60 ****       -23.9213   3.8078  15.7454 LP             1 <1>                0.0000
@<TRIPOS>BOND
    1    1    4 ar    
    2    1   14 ar    
    3    1   28 1     
    4    2   13 ar    
    5    2   15 am    
    6    2   29 1     
    7    3   15 2     
    8    4    7 ar    
    9    4   13 ar    
   10    5   18 1     
   11    5   17 1     
   12    5   30 1     
   13    6   12 1     
   14    6   31 1     
   15    7   16 1     
   16    7    9 ar    
   17    8   27 1     
   18    8   24 1     
   19    9   11 ar    
   20    9   32 1     
   21   10   16 1     
   22   10   33 1     
   23   11   12 ar    
   24   11   34 1     
   25   12   13 ar    
   26   14   15 ar    
   27   14   35 1     
   28   16   17 1     
   29   16   36 1     
   30   17   37 1     
   31   17   38 1     
   32   18   19 1     
   33   18   20 1     
   34   18   39 1     
   35   19   40 1     
   36   19   41 1     
   37   19   42 1     
   38   20   21 1     
   39   20   43 1     
   40   20   44 1     
   41   21   22 ar    
   42   21   26 ar    
   43   22   23 ar    
   44   22   45 1     
   45   23   24 ar    
   46   23   46 1     
   47   24   25 ar    
   48   25   26 ar    
   49   25   47 1     
   50   26   48 1     
   51   27   49 1     
   52   27   50 1     
   53   27   51 1     
   54    3   52 1     
   55    3   53 1     
   56    5   54 1     
   57    6   55 1     
   58    6   56 1     
   59    8   57 1     
   60    8   58 1     
   61   10   59 1     
   62   10   60 1     
@<TRIPOS>SUBSTRUCTURE
      1 ****           1
@<TRIPOS>SET
LONE_PAIRS      STATIC     ATOMS    <user>   **** ""
9 52 53 54 55 56 57 58 59 60
DONOR_HYDROGENS      STATIC     ATOMS    <user>   **** ""
4 29 30 31 33
ATOM$BLUE        STATIC     ATOMS    COLORGROUP SYSTEM
9 52 53 54 55 56 57 58 59 60
ATOM$RED        STATIC     ATOMS    COLORGROUP SYSTEM
4 29 30 31 33
@<TRIPOS>COMMENT
> <Gold.Version>
5.5

> <Gold.Id.Protein>
unknown|bialko_beta1|pdb

> <Gold.Protein.ActiveResidues>
 ALA86   ASP87   VAL90   VAL94   VAL95   GLY98   ALA99   LEU101  VAL102  CYS114 
 GLU115  TRP117  THR118  SER119  LEU120  ASP121  VAL122  CYS124  VAL125  THR126 
 SER128  SER173  PHE174  ILE177  CYS199  ASP200  PHE201  TYR207  SER215  PHE299 
 TRP303  PHE306  PHE307  ASN310  PHE325  VAL326  ASN329  TRP330  GLY332  TYR333 
 SER336 

> <Gold.Score>
     Score     S(PLP)   S(hbond)     S(cho)   S(metal)  DE(clash)   DE(tors)     intcor
     56.63     -56.63       0.00       0.00       0.00       0.00       0.00       0.00

> <Gold.PLP.Fitness>
56.6275

> <Gold.PLP.PLP>
-56.6275

> <Gold.PLP.part.hbond>
-3.1272

> <Gold.PLP.part.metal>
0.0000

> <Gold.PLP.part.buried>
-0.7981

> <Gold.PLP.part.nonpolar>
-54.2198

> <Gold.PLP.part.repulsive>
0.7201

> <Gold.PLP.ligand.clash>
0.0000

> <Gold.PLP.ligand.torsion>
0.0000

> <Gold.PLP.Chemscore.Hbond>
0.0000

> <Gold.PLP.Chemscore.CHOScore>
0.0000

> <Gold.PLP.Chemscore.Metal>
0.0000

> <Gold.PLP.Chemscore.Internal.Correction>
0.0000

