#       Name:                C:\Users\porto\OneDrive\projekt\beta1\ligandy\L_6ibl.pdb L_6ibl.pdb 1
#       Creating user name   student
#       Creation time:       Mon Apr 08 14:37:02 2019


#       File generated by GOLD software.
#

@<TRIPOS>MOLECULE
C:\Users\porto\OneDrive\projekt\beta1\ligandy\L_6ibl.pdb L_6ibl.pdb 1|6ibl|mol2|1|dock2
    58    59     1
SMALL
GASTEIGER


@<TRIPOS>ATOM
      1 C1         -21.2151   8.7754  17.6986 C.3            1 <1>               -0.0494
      2 N1         -23.0415   7.0859  17.9683 N.3            1 <1>               -0.3104
      3 O1         -25.1243  14.2978  19.6685 O.3            1 <1>               -0.4951
      4 C2         -22.6806   8.5178  18.0983 C.3            1 <1>                0.0089
      5 N2         -24.1827   5.8975  11.4118 N.am           1 <1>               -0.2852
      6 O2         -23.1166   3.4796  11.0497 O.3            1 <1>               -0.5049
      7 C3         -22.9943   9.0206  19.5245 C.3            1 <1>               -0.0125
      8 O3         -24.7459   7.8623  10.4399 O.2            1 <1>               -0.2792
      9 C4         -23.5685  10.4213  19.5663 C.ar           1 <1>               -0.0457
     10 O4         -23.5836   4.3853  17.4010 O.3            1 <1>               -0.3859
     11 C5         -24.9205  10.6465  19.3206 C.ar           1 <1>               -0.0551
     12 C6         -25.4641  11.9215  19.3562 C.ar           1 <1>               -0.0197
     13 C7         -24.6420  13.0110  19.6404 C.ar           1 <1>                0.1201
     14 C8         -23.2878  12.8028  19.9011 C.ar           1 <1>               -0.0197
     15 C9         -22.7633  11.5171  19.8564 C.ar           1 <1>               -0.0551
     16 C10        -26.0044  14.7542  18.6363 C.3            1 <1>                0.0788
     17 C11        -22.9540   6.5528  16.6045 C.3            1 <1>                0.0264
     18 C12        -23.8451   5.3338  16.3744 C.3            1 <1>                0.0927
     19 C13        -23.6296   4.8249  14.9524 C.ar           1 <1>               -0.0160
     20 C14        -24.0118   5.6075  13.8636 C.ar           1 <1>               -0.0312
     21 C15        -23.8292   5.1528  12.5592 C.ar           1 <1>                0.0755
     22 C16        -23.2728   3.8896  12.3296 C.ar           1 <1>                0.1380
     23 C17        -22.8835   3.1119  13.4184 C.ar           1 <1>               -0.0180
     24 C18        -23.0617   3.5805  14.7049 C.ar           1 <1>               -0.0525
     25 C19        -24.8620   7.0406  11.3360 C.2            1 <1>                0.2042
     26 H11        -20.9893   9.8357  17.8073 H              1 <1>                0.0245
     27 H12        -20.5544   8.1954  18.3436 H              1 <1>                0.0245
     28 H13        -21.0626   8.4766  16.6612 H              1 <1>                0.0245
     29 HN1        -23.9882   6.9919  18.3074 H              1 <1>                0.1223
     30 H2         -23.3114   9.0780  17.4077 H              1 <1>                0.0461
     31 HN2        -23.8476   5.4520  10.5695 H              1 <1>                0.1546
     32 HO2        -22.7275   2.6018  11.0400 H              1 <1>                0.2922
     33 H31        -22.0876   8.9837  20.1288 H              1 <1>                0.0328
     34 H32        -23.6876   8.3312  20.0064 H              1 <1>                0.0328
     35 HO4        -24.1367   3.6113  17.2704 H              1 <1>                0.2103
     36 H5         -25.5739   9.8170  19.0954 H              1 <1>                0.0621
     37 H6         -26.5170  12.0651  19.1642 H              1 <1>                0.0654
     38 H8         -22.6483  13.6406  20.1371 H              1 <1>                0.0654
     39 H9         -21.7104  11.3765  20.0523 H              1 <1>                0.0621
     40 H101       -26.2798  15.7917  18.8252 H              1 <1>                0.0660
     41 H102       -25.5020  14.6820  17.6716 H              1 <1>                0.0660
     42 H103       -26.9025  14.1366  18.6242 H              1 <1>                0.0660
     43 H111       -21.9191   6.2915  16.3839 H              1 <1>                0.0453
     44 H112       -23.2192   7.3348  15.8927 H              1 <1>                0.0453
     45 H12        -24.8838   5.6525  16.4657 H              1 <1>                0.0656
     46 H14        -24.4553   6.5790  14.0255 H              1 <1>                0.0641
     47 H17        -22.4410   2.1404  13.2576 H              1 <1>                0.0655
     48 H18        -22.7483   2.9561  15.5283 H              1 <1>                0.0622
     49 H19        -25.5773   7.2951  12.1042 H              1 <1>                0.1255
     50 ****       -22.3796   6.5543  18.4968 LP             1 <1>                0.0000
     51 ****       -25.6144  14.4037  20.5337 LP             1 <1>                0.0000
     52 ****       -24.3294  14.9044  19.6593 LP             1 <1>                0.0000
     53 ****       -22.5152   4.1161  10.5669 LP             1 <1>                0.0000
     54 ****       -24.0077   3.4542  10.5967 LP             1 <1>                0.0000
     55 ****       -24.1032   7.6986   9.6915 LP             1 <1>                0.0000
     56 ****       -25.2935   8.6989  10.4546 LP             1 <1>                0.0000
     57 ****       -23.7862   4.7933  18.2912 LP             1 <1>                0.0000
     58 ****       -22.6210   4.1163  17.3690 LP             1 <1>                0.0000
@<TRIPOS>BOND
    1    1    4 1     
    2    1   26 1     
    3    1   27 1     
    4    1   28 1     
    5    2   17 1     
    6    2    4 1     
    7    2   29 1     
    8    3   16 1     
    9    3   13 1     
   10    4    7 1     
   11    4   30 1     
   12    5   25 am    
   13    5   21 1     
   14    5   31 1     
   15    6   22 1     
   16    6   32 1     
   17    7    9 1     
   18    7   33 1     
   19    7   34 1     
   20    8   25 2     
   21    9   11 ar    
   22    9   15 ar    
   23   10   18 1     
   24   10   35 1     
   25   11   12 ar    
   26   11   36 1     
   27   12   13 ar    
   28   12   37 1     
   29   13   14 ar    
   30   14   15 ar    
   31   14   38 1     
   32   15   39 1     
   33   16   40 1     
   34   16   41 1     
   35   16   42 1     
   36   17   18 1     
   37   17   43 1     
   38   17   44 1     
   39   18   19 1     
   40   18   45 1     
   41   19   20 ar    
   42   19   24 ar    
   43   20   21 ar    
   44   20   46 1     
   45   21   22 ar    
   46   22   23 ar    
   47   23   24 ar    
   48   23   47 1     
   49   24   48 1     
   50   25   49 1     
   51    2   50 1     
   52    3   51 1     
   53    3   52 1     
   54    6   53 1     
   55    6   54 1     
   56    8   55 1     
   57    8   56 1     
   58   10   57 1     
   59   10   58 1     
@<TRIPOS>SUBSTRUCTURE
      1 ****           1
@<TRIPOS>SET
LONE_PAIRS      STATIC     ATOMS    <user>   **** ""
9 50 51 52 53 54 55 56 57 58
DONOR_HYDROGENS      STATIC     ATOMS    <user>   **** ""
4 29 31 32 35
ATOM$BLUE        STATIC     ATOMS    COLORGROUP SYSTEM
9 50 51 52 53 54 55 56 57 58
ATOM$RED        STATIC     ATOMS    COLORGROUP SYSTEM
4 29 31 32 35
@<TRIPOS>COMMENT
> <Gold.Version>
5.5

> <Gold.Id.Protein>
unknown|bialko_beta1|pdb

> <Gold.Protein.ActiveResidues>
 ALA86   ASP87   VAL90   VAL94   VAL95   GLY98   ALA99   LEU101  VAL102  CYS114 
 GLU115  TRP117  THR118  SER119  LEU120  ASP121  VAL122  CYS124  VAL125  THR126 
 SER128  SER173  PHE174  ILE177  CYS199  ASP200  PHE201  TYR207  SER215  PHE299 
 TRP303  PHE306  PHE307  ASN310  PHE325  VAL326  ASN329  TRP330  GLY332  TYR333 
 SER336 

> <Gold.Score>
     Score     S(PLP)   S(hbond)     S(cho)   S(metal)  DE(clash)   DE(tors)     intcor
     60.94     -58.26       0.89       0.00       0.00       0.00       0.00       0.00

> <Gold.PLP.Fitness>
60.9371

> <Gold.PLP.PLP>
-58.2559

> <Gold.PLP.part.hbond>
-2.3830

> <Gold.PLP.part.metal>
0.0000

> <Gold.PLP.part.buried>
-2.4386

> <Gold.PLP.part.nonpolar>
-54.7703

> <Gold.PLP.part.repulsive>
0.6303

> <Gold.PLP.ligand.clash>
0.0000

> <Gold.PLP.ligand.torsion>
0.0000

> <Gold.PLP.Chemscore.Hbond>
0.8938

> <Gold.PLP.Chemscore.CHOScore>
0.0000

> <Gold.PLP.Chemscore.Metal>
0.0000

> <Gold.Chemscore.Hbonds>
donor molecule, donor type, donor heavy atom, donor atom, acceptor molecule, acceptor atom, score
      L1  H     2    29       P1  2066  0.89

> <Gold.PLP.Chemscore.Internal.Correction>
0.0000

