#       Name:                C:\Users\porto\OneDrive\projekt\beta1\ligandy\L_6ibl.pdb L_6ibl.pdb 1
#       Creating user name   student
#       Creation time:       Mon Apr 08 14:37:01 2019


#       File generated by GOLD software.
#

@<TRIPOS>MOLECULE
C:\Users\porto\OneDrive\projekt\beta1\ligandy\L_6ibl.pdb L_6ibl.pdb 1
    58    59     1
SMALL
GASTEIGER


@<TRIPOS>ATOM
      1 C1           2.4648   0.6382   1.1422 C.3            1 <1>               -0.0494
      2 N1           0.6738  -1.0878   1.4182 N.3            1 <1>               -0.3104
      3 O1          -1.5352   6.0742   3.1692 O.3            1 <1>               -0.4951
      4 C2           1.0078   0.3502   1.5522 C.3            1 <1>                0.0089
      5 N2          -0.4962  -2.2678  -5.1348 N.am           1 <1>               -0.2852
      6 O2           0.6138  -4.6628  -5.5168 O.3            1 <1>               -0.5049
      7 C3           0.6958   0.8402   2.9832 C.3            1 <1>               -0.0125
      8 O3          -1.1052  -0.3098  -6.0928 O.2            1 <1>               -0.2792
      9 C4           0.0948   2.2292   3.0362 C.ar           1 <1>               -0.0457
     10 O4           0.1798  -3.7958   0.8422 O.3            1 <1>               -0.3859
     11 C5          -1.2632   2.4292   2.8022 C.ar           1 <1>               -0.0551
     12 C6          -1.8312   3.6932   2.8482 C.ar           1 <1>               -0.0197
     13 C7          -1.0282   4.7972   3.1312 C.ar           1 <1>                0.1201
     14 C8           0.3318   4.6142   3.3802 C.ar           1 <1>               -0.0197
     15 C9           0.8808   3.3392   3.3252 C.ar           1 <1>               -0.0551
     16 C10         -2.4322   6.5182   2.1462 C.3            1 <1>                0.0788
     17 C11          0.7608  -1.6128   0.0512 C.3            1 <1>                0.0264
     18 C12         -0.1082  -2.8478  -0.1778 C.3            1 <1>                0.0927
     19 C13          0.1058  -3.3458  -1.6038 C.ar           1 <1>               -0.0160
     20 C14         -0.3002  -2.5658  -2.6858 C.ar           1 <1>               -0.0312
     21 C15         -0.1192  -3.0108  -3.9938 C.ar           1 <1>                0.0755
     22 C16          0.4598  -4.2618  -4.2338 C.ar           1 <1>                0.1380
     23 C17          0.8728  -5.0368  -3.1518 C.ar           1 <1>               -0.0180
     24 C18          0.6958  -4.5778  -1.8618 C.ar           1 <1>               -0.0525
     25 C19         -1.1982  -1.1378  -5.1998 C.2            1 <1>                0.2042
     26 H11          2.6708   1.7022   1.2542 H              1 <1>                0.0245
     27 H12          3.1418   0.0682   1.7792 H              1 <1>                0.0245
     28 H13          2.6148   0.3472   0.1022 H              1 <1>                0.0245
     29 HN1         -0.2682  -1.2018   1.7642 H              1 <1>                0.1223
     30 H2           0.3608   0.9012   0.8692 H              1 <1>                0.0461
     31 HN2         -0.1592  -2.7028  -5.9818 H              1 <1>                0.1546
     32 HO2          1.0198  -5.5328  -5.5338 H              1 <1>                0.2922
     33 H31          1.6078   0.8182   3.5802 H              1 <1>                0.0328
     34 H32          0.0198   0.1352   3.4672 H              1 <1>                0.0328
     35 HO4         -0.3592  -4.5798   0.7122 H              1 <1>                0.2103
     36 H5          -1.9022   1.5882   2.5782 H              1 <1>                0.0621
     37 H6          -2.8882   3.8172   2.6652 H              1 <1>                0.0654
     38 H8           0.9568   5.4632   3.6152 H              1 <1>                0.0654
     39 H9           1.9378   3.2182   3.5122 H              1 <1>                0.0621
     40 H101        -2.7262   7.5492   2.3422 H              1 <1>                0.0660
     41 H102        -1.9362   6.4602   1.1772 H              1 <1>                0.0660
     42 H103        -3.3182   5.8832   2.1382 H              1 <1>                0.0660
     43 H111         1.7988  -1.8528  -0.1788 H              1 <1>                0.0453
     44 H112         0.4748  -0.8328  -0.6548 H              1 <1>                0.0453
     45 H12         -1.1522  -2.5498  -0.0768 H              1 <1>                0.0656
     46 H14         -0.7612  -1.6038  -2.5158 H              1 <1>                0.0641
     47 H17          1.3328  -5.9988  -3.3208 H              1 <1>                0.0655
     48 H18          1.0278  -5.1998  -1.0438 H              1 <1>                0.0622
     49 H19         -1.9122  -0.9008  -4.4248 H              1 <1>                0.1255
     50 ****         1.3501  -1.6088   1.9388 LP             1 <1>                0.0000
     51 ****        -2.0205   6.1666   4.0387 LP             1 <1>                0.0000
     52 ****        -0.7523   6.6963   3.1567 LP             1 <1>                0.0000
     53 ****         1.1988  -4.0124  -6.0014 LP             1 <1>                0.0000
     54 ****        -0.2803  -4.7034  -5.9629 LP             1 <1>                0.0000
     55 ****        -0.4655  -0.4575  -6.8470 LP             1 <1>                0.0000
     56 ****        -1.6689   0.5159  -6.0698 LP             1 <1>                0.0000
     57 ****        -0.0236  -3.3959   1.7359 LP             1 <1>                0.0000
     58 ****         1.1471  -4.0458   0.8013 LP             1 <1>                0.0000
@<TRIPOS>BOND
    1    1    4 1     
    2    1   26 1     
    3    1   27 1     
    4    1   28 1     
    5    2   17 1     
    6    2    4 1     
    7    2   29 1     
    8    3   16 1     
    9    3   13 1     
   10    4    7 1     
   11    4   30 1     
   12    5   25 am    
   13    5   21 1     
   14    5   31 1     
   15    6   22 1     
   16    6   32 1     
   17    7    9 1     
   18    7   33 1     
   19    7   34 1     
   20    8   25 2     
   21    9   11 ar    
   22    9   15 ar    
   23   10   18 1     
   24   10   35 1     
   25   11   12 ar    
   26   11   36 1     
   27   12   13 ar    
   28   12   37 1     
   29   13   14 ar    
   30   14   15 ar    
   31   14   38 1     
   32   15   39 1     
   33   16   40 1     
   34   16   41 1     
   35   16   42 1     
   36   17   18 1     
   37   17   43 1     
   38   17   44 1     
   39   18   19 1     
   40   18   45 1     
   41   19   20 ar    
   42   19   24 ar    
   43   20   21 ar    
   44   20   46 1     
   45   21   22 ar    
   46   22   23 ar    
   47   23   24 ar    
   48   23   47 1     
   49   24   48 1     
   50   25   49 1     
   51    2   50 1     
   52    3   51 1     
   53    3   52 1     
   54    6   53 1     
   55    6   54 1     
   56    8   55 1     
   57    8   56 1     
   58   10   57 1     
   59   10   58 1     
@<TRIPOS>SUBSTRUCTURE
      1 ****           1
@<TRIPOS>SET
LONE_PAIRS      STATIC     ATOMS    <user>   **** ""
9 50 51 52 53 54 55 56 57 58
DONOR_HYDROGENS      STATIC     ATOMS    <user>   **** ""
4 29 31 32 35
ATOM$BLUE        STATIC     ATOMS    COLORGROUP SYSTEM
9 50 51 52 53 54 55 56 57 58
ATOM$RED        STATIC     ATOMS    COLORGROUP SYSTEM
4 29 31 32 35
