#       Name:                C:\Users\porto\OneDrive\projekt\beta2\ligandy\L_6mxt.pdb L_6mxt.pdb 1
#       Creating user name   student
#       Creation time:       Mon Apr 08 16:13:49 2019


#       File generated by GOLD software.
#

@<TRIPOS>MOLECULE
C:\Users\porto\OneDrive\projekt\beta2\ligandy\L_6mxt.pdb L_6mxt.pdb 1|6mxt|mol2|1|dock55
    76    77     1
SMALL
GASTEIGER


@<TRIPOS>ATOM
      1 CAD        -38.1660   6.6058  10.7517 C.ar           1 <1>               -0.0617
      2 CAE        -38.9868   5.6301  10.1976 C.ar           1 <1>               -0.0615
      3 CAF        -36.8635   6.2883  11.1137 C.ar           1 <1>               -0.0615
      4 CAG        -38.5019   4.3395  10.0037 C.ar           1 <1>               -0.0586
      5 CAH        -36.3788   4.9986  10.9212 C.ar           1 <1>               -0.0586
      6 CAI        -27.3493  12.9633   5.2423 C.ar           1 <1>               -0.0195
      7 CAJ        -28.6638  13.0787   5.6767 C.ar           1 <1>               -0.0526
      8 CAK        -28.6404  10.7553   6.3322 C.ar           1 <1>               -0.0472
      9 CAL        -31.3762   7.5694   6.7241 C.3            1 <1>               -0.0518
     10 CAM        -32.4363   6.4666   6.8021 C.3            1 <1>               -0.0509
     11 CAN        -32.0489   8.9211   6.4778 C.3            1 <1>               -0.0404
     12 CAO        -33.0171   6.2127   5.4087 C.3            1 <1>               -0.0295
     13 CAP        -34.9189   3.1950   8.4792 C.3            1 <1>               -0.0292
     14 CAQ        -36.2906   2.5530   8.7121 C.3            1 <1>               -0.0470
     15 CAR        -26.6482   9.4300   5.9998 C.3            1 <1>                0.0727
     16 CAS        -32.6541   9.4616   7.7785 C.3            1 <1>               -0.0040
     17 CAT        -33.8368   4.9251   5.4447 C.3            1 <1>                0.0477
     18 CAU        -34.6970   3.4129   6.9833 C.3            1 <1>                0.0477
     19 CAV        -36.7074   2.7343  10.1783 C.3            1 <1>               -0.0276
     20 CAW        -30.8628  11.1028   7.7960 C.3            1 <1>                0.0261
     21 CAZ        -37.1980   4.0216  10.3667 C.ar           1 <1>               -0.0474
     22 NAX        -32.3041  10.8807   7.9777 N.3            1 <1>               -0.3132
     23 OAA        -26.5979   9.0415   7.3744 O.3            1 <1>               -0.3903
     24 OAB        -25.4053  11.5914   4.9437 O.3            1 <1>               -0.5064
     25 OAC        -31.5109  11.7722   5.5846 O.3            1 <1>               -0.3859
     26 OAY        -34.4479   4.7958   6.7308 O.3            1 <1>               -0.3798
     27 CBA        -26.6919  11.7481   5.3558 C.ar           1 <1>                0.1222
     28 CBB        -29.3071  11.9750   6.2230 C.ar           1 <1>               -0.0174
     29 CBC        -27.3259  10.6376   5.8974 C.ar           1 <1>                0.0195
     30 CBD        -30.6208  12.0958   6.6522 C.3            1 <1>                0.0926
     31 HAD        -38.5387   7.6085  10.9012 H              1 <1>                0.0618
     32 HAE        -40.0011   5.8728   9.9171 H              1 <1>                0.0618
     33 HAF        -36.2242   7.0435  11.5455 H              1 <1>                0.0618
     34 HAG        -39.1388   3.5828   9.5703 H              1 <1>                0.0620
     35 HAH        -35.3646   4.7555  11.2026 H              1 <1>                0.0620
     36 HAI        -26.8392  13.8157   4.8174 H              1 <1>                0.0654
     37 HAJ        -29.1810  14.0229   5.5883 H              1 <1>                0.0622
     38 HAK        -29.1480   9.9010   6.7551 H              1 <1>                0.0626
     39 HAL1       -30.8210   7.6054   7.6612 H              1 <1>                0.0266
     40 HAL2       -30.6865   7.3532   5.9084 H              1 <1>                0.0266
     41 HAM1       -33.2341   6.7771   7.4774 H              1 <1>                0.0266
     42 HAM2       -31.9802   5.5511   7.1778 H              1 <1>                0.0266
     43 HAN1       -32.8352   8.8044   5.7321 H              1 <1>                0.0277
     44 HAN2       -31.3119   9.6291   6.0981 H              1 <1>                0.0277
     45 HAO1       -32.2042   6.1056   4.6909 H              1 <1>                0.0287
     46 HAO2       -33.6609   7.0454   5.1269 H              1 <1>                0.0287
     47 HAP1       -34.8740   4.1538   8.9965 H              1 <1>                0.0287
     48 HAP2       -34.1405   2.5396   8.8702 H              1 <1>                0.0287
     49 HAQ1       -36.2385   1.4899   8.4781 H              1 <1>                0.0269
     50 HAQ2       -37.0275   3.0269   8.0639 H              1 <1>                0.0269
     51 HAR1       -27.1760   8.6677   5.4266 H              1 <1>                0.0608
     52 HAR2       -25.6337   9.5493   5.6188 H              1 <1>                0.0608
     53 HAS1       -32.2858   8.8754   8.6209 H              1 <1>                0.0424
     54 HAS2       -33.7385   9.3566   7.7456 H              1 <1>                0.0424
     55 HAT1       -33.1814   4.0728   5.2670 H              1 <1>                0.0560
     56 HAT2       -34.6105   4.9650   4.6780 H              1 <1>                0.0560
     57 HAU1       -35.5849   3.0978   6.4353 H              1 <1>                0.0560
     58 HAU2       -33.8412   2.8243   6.6537 H              1 <1>                0.0560
     59 HAV1       -35.8434   2.5774  10.8234 H              1 <1>                0.0313
     60 HAV2       -37.4829   2.0101  10.4276 H              1 <1>                0.0313
     61 HAW1       -30.4375  11.5002   8.7176 H              1 <1>                0.0453
     62 HAW2       -30.3759  10.1554   7.5634 H              1 <1>                0.0453
     63 HNAX       -32.8045  11.4488   7.3086 H              1 <1>                0.1220
     64 HOAA       -26.2880   8.1353   7.4407 H              1 <1>                0.2098
     65 HOAB       -24.8312  12.1587   5.4624 H              1 <1>                0.2921
     66 HOAC       -32.3650  11.5225   5.9442 H              1 <1>                0.2103
     67 HBD        -30.8074  13.1126   6.9972 H              1 <1>                0.0656
     68 ****       -32.5560  11.1330   8.9121 LP             1 <1>                0.0000
     69 ****       -27.5121   9.1110   7.7738 LP             1 <1>                0.0000
     70 ****       -25.9717   9.6447   7.8684 LP             1 <1>                0.0000
     71 ****       -25.3325  11.8379   3.9773 LP             1 <1>                0.0000
     72 ****       -25.1301  10.6378   5.0660 LP             1 <1>                0.0000
     73 ****       -31.1356  11.0100   5.0572 LP             1 <1>                0.0000
     74 ****       -31.6199  12.5680   4.9889 LP             1 <1>                0.0000
     75 ****       -35.3106   5.3012   6.7455 LP             1 <1>                0.0000
     76 ****       -33.8357   5.1609   7.4322 LP             1 <1>                0.0000
@<TRIPOS>BOND
    1    1    3 ar    
    2    1    2 ar    
    3    1   31 1     
    4    2    4 ar    
    5    2   32 1     
    6    3    5 ar    
    7    3   33 1     
    8    4   21 ar    
    9    4   34 1     
   10    5   21 ar    
   11    5   35 1     
   12    6   27 ar    
   13    6    7 ar    
   14    6   36 1     
   15    7   28 ar    
   16    7   37 1     
   17    8   29 ar    
   18    8   28 ar    
   19    8   38 1     
   20    9   11 1     
   21    9   10 1     
   22    9   39 1     
   23    9   40 1     
   24   10   12 1     
   25   10   41 1     
   26   10   42 1     
   27   11   16 1     
   28   11   43 1     
   29   11   44 1     
   30   12   17 1     
   31   12   45 1     
   32   12   46 1     
   33   13   18 1     
   34   13   14 1     
   35   13   47 1     
   36   13   48 1     
   37   14   19 1     
   38   14   49 1     
   39   14   50 1     
   40   15   23 1     
   41   15   29 1     
   42   15   51 1     
   43   15   52 1     
   44   16   22 1     
   45   16   53 1     
   46   16   54 1     
   47   17   26 1     
   48   17   55 1     
   49   17   56 1     
   50   18   26 1     
   51   18   57 1     
   52   18   58 1     
   53   19   21 1     
   54   19   59 1     
   55   19   60 1     
   56   20   30 1     
   57   20   22 1     
   58   20   61 1     
   59   20   62 1     
   60   22   63 1     
   61   23   64 1     
   62   24   27 1     
   63   24   65 1     
   64   25   30 1     
   65   25   66 1     
   66   27   29 ar    
   67   28   30 1     
   68   30   67 1     
   69   22   68 1     
   70   23   69 1     
   71   23   70 1     
   72   24   71 1     
   73   24   72 1     
   74   25   73 1     
   75   25   74 1     
   76   26   75 1     
   77   26   76 1     
@<TRIPOS>SUBSTRUCTURE
      1 ****           1
@<TRIPOS>SET
LONE_PAIRS      STATIC     ATOMS    <user>   **** ""
9 68 69 70 71 72 73 74 75 76
DONOR_HYDROGENS      STATIC     ATOMS    <user>   **** ""
4 63 64 65 66
ATOM$BLUE        STATIC     ATOMS    COLORGROUP SYSTEM
9 68 69 70 71 72 73 74 75 76
ATOM$RED        STATIC     ATOMS    COLORGROUP SYSTEM
4 63 64 65 66
@<TRIPOS>COMMENT
> <Gold.Version>
5.5

> <Gold.Id.Protein>
unknown|dok_beta2|pdb

> <Gold.Protein.RotatedTorsions>
[ 4175 4166 4165 4163 ] final -108.64 input -179.98 | X-H torsion
[ 1294 1290 1288 1285 ] final  121.86 input -179.99 | X-H torsion
[ 4033 4024 4023 4021 ] final -123.06 input  179.98 | X-H torsion
[ 1412 1408 1406 1403 ] final -132.45 input -179.99 | X-H torsion
[ 2830 2825 2824 2821 ] final   29.32 input -179.98 | X-H torsion
[ 2723 2714 2713 2711 ] final   -6.06 input -179.98 | X-H torsion
[ 2773 2768 2767 2764 ] final  -68.16 input  180.00 | X-H torsion

> <Gold.Protein.ActiveResidues>
 TRP109  THR110  ASP113  VAL114  VAL117  THR118  PHE193  TYR199  SER203  SER207 
 PHE208  TRP286  PHE289  PHE290  ASN293  TYR308  ASN312  TYR316 

> <Gold.Protein.RotatedAtoms>
  -34.6186    3.7049    1.0536 H   0  0  0  0  0  0  0  0  0  0  0  0  # atno 1294 bound_to 1290
  -26.6381   14.8801    2.1522 H   0  0  0  0  0  0  0  0  0  0  0  0  # atno 1412 bound_to 1408
  -26.0986    8.0369    1.2980 H   0  0  0  0  0  0  0  0  0  0  0  0  # atno 2723 bound_to 2714
  -24.2504   10.5227    3.8692 H   0  0  0  0  0  0  0  0  0  0  0  0  # atno 2773 bound_to 2768
  -23.2990   13.6030    2.5879 H   0  0  0  0  0  0  0  0  0  0  0  0  # atno 2830 bound_to 2825
  -27.7793    5.8899   11.3810 H   0  0  0  0  0  0  0  0  0  0  0  0  # atno 4033 bound_to 4024
  -36.1627    8.7642    8.3059 H   0  0  0  0  0  0  0  0  0  0  0  0  # atno 4175 bound_to 4166
  -36.9346    9.3047    7.0125 LP  0  0  0  0  0  0  0  0  0  0  0  0  # atno 4597 bound_to 4166
  -37.6858    8.3267    8.0829 LP  0  0  0  0  0  0  0  0  0  0  0  0  # atno 4598 bound_to 4166
  -35.3812    4.7399    2.0067 LP  0  0  0  0  0  0  0  0  0  0  0  0  # atno 4603 bound_to 1290
  -33.9811    4.0463    2.4814 LP  0  0  0  0  0  0  0  0  0  0  0  0  # atno 4604 bound_to 1290
  -28.8336    7.0896   11.2747 LP  0  0  0  0  0  0  0  0  0  0  0  0  # atno 4607 bound_to 4024
  -29.1390    5.6476   10.5719 LP  0  0  0  0  0  0  0  0  0  0  0  0  # atno 4608 bound_to 4024
  -28.1980   14.5332    2.0653 LP  0  0  0  0  0  0  0  0  0  0  0  0  # atno 4611 bound_to 1408
  -27.5583   15.1574    3.4319 LP  0  0  0  0  0  0  0  0  0  0  0  0  # atno 4612 bound_to 1408
  -24.7523   13.9786    2.0337 LP  0  0  0  0  0  0  0  0  0  0  0  0  # atno 4613 bound_to 2825
  -24.5475   12.7130    3.0452 LP  0  0  0  0  0  0  0  0  0  0  0  0  # atno 4614 bound_to 2825

> <Gold.Score>
     Score     S(PLP)   S(hbond)     S(cho)   S(metal)  DE(clash)   DE(tors)     intcor
     97.41     -97.03       2.46       0.00       0.00       2.38       2.98       1.36

> <Gold.PLP.Fitness>
97.4056

> <Gold.PLP.PLP>
-97.0281

> <Gold.PLP.part.hbond>
-7.7362

> <Gold.PLP.part.metal>
0.0000

> <Gold.PLP.part.buried>
-2.3810

> <Gold.PLP.part.nonpolar>
-90.3342

> <Gold.PLP.part.repulsive>
0.0178

> <Gold.PLP.ligand.clash>
2.3805

> <Gold.PLP.ligand.torsion>
2.9838

> <Gold.PLP.Chemscore.Hbond>
2.4560

> <Gold.PLP.Chemscore.CHOScore>
0.0000

> <Gold.PLP.Chemscore.Metal>
0.0000

> <Gold.Chemscore.Hbonds>
donor molecule, donor type, donor heavy atom, donor atom, acceptor molecule, acceptor atom, score
      L1  H    22    63       P1  1334  0.48
      L1  H    25    66       P1  1334  0.98
      P1  H  2768  2773       L1    24  1.00

> <Gold.PLP.Chemscore.Internal.Correction>
1.3576

