#       Name:                C:\Users\porto\OneDrive\projekt\beta1\ligandy\L_5a8e.pdb L_5a8e.pdb 1
#       Creating user name   student
#       Creation time:       Mon Apr 01 15:37:46 2019


#       File generated by GOLD software.
#

@<TRIPOS>MOLECULE
C:\Users\porto\OneDrive\projekt\beta1\ligandy\L_5a8e.pdb L_5a8e.pdb 1
    51    52     1
SMALL
GASTEIGER


@<TRIPOS>ATOM
      1 C1          -1.0946   0.9059  -3.9505 C.ar           1 <1>                0.1185
      2 N1          -0.4656  -0.0511  -4.6605 N.pl3          1 <1>               -0.3459
      3 O1          -1.0786  -1.3671  -0.1605 O.3            1 <1>               -0.4887
      4 C2          -1.3016   0.5889  -2.6195 C.ar           1 <1>               -0.0151
      5 N2           0.0624   0.8619   3.2835 N.3            1 <1>               -0.3088
      6 O2          -0.5326  -1.8881   3.4015 O.3            1 <1>               -0.3872
      7 C3          -0.7456  -0.7211  -2.5025 C.ar           1 <1>                0.0428
      8 N3          -1.7756   3.0829  -4.9805 N.1            1 <1>               -0.1893
      9 C4          -0.5916  -1.7071  -1.3955 C.ar           1 <1>                0.1298
     10 C5           0.0274  -2.9451  -1.6455 C.ar           1 <1>               -0.0190
     11 C6           0.5154  -3.2881  -2.9065 C.ar           1 <1>               -0.0534
     12 C7           0.4154  -2.4231  -3.9905 C.ar           1 <1>               -0.0263
     13 C8          -0.2266  -1.0961  -3.8335 C.ar           1 <1>                0.0539
     14 C9          -0.7316  -2.0571   1.0405 C.3            1 <1>                0.1166
     15 C10         -0.9016  -1.1441   2.2375 C.3            1 <1>                0.1015
     16 C11         -0.0416   0.1079   2.0495 C.3            1 <1>                0.0256
     17 C12          0.5184   2.2469   3.3215 C.3            1 <1>                0.0108
     18 C13          1.8224   2.3559   2.5315 C.3            1 <1>               -0.0473
     19 C14          0.8174   2.6369   4.7715 C.3            1 <1>               -0.0473
     20 C15         -0.5806   3.1319   2.7195 C.3            1 <1>               -0.0473
     21 C16         -1.4546   2.0819  -4.4755 C.1            1 <1>                0.1171
     22 C17          0.9574  -2.8041  -5.3305 C.3            1 <1>               -0.0377
     23 HN1         -0.2596   0.0979  -5.6375 H              1 <1>                0.1665
     24 H2          -1.7896   1.2959  -1.9655 H              1 <1>                0.0653
     25 HN2          0.6804   0.2879   3.8405 H              1 <1>                0.1225
     26 HO2         -0.6296  -1.3351   4.1795 H              1 <1>                0.2100
     27 H5           0.1364  -3.6651  -0.8475 H              1 <1>                0.0654
     28 H6           0.9864  -4.2481  -3.0605 H              1 <1>                0.0622
     29 H91          0.3044  -2.3891   0.9815 H              1 <1>                0.0723
     30 H92         -1.3736  -2.9301   1.1555 H              1 <1>                0.0723
     31 H10         -1.9486  -0.8501   2.3175 H              1 <1>                0.0640
     32 H111         0.9544  -0.1831   1.7165 H              1 <1>                0.0451
     33 H112        -0.4816   0.7369   1.2755 H              1 <1>                0.0451
     34 H131         2.1754   3.3869   2.5515 H              1 <1>                0.0247
     35 H132         2.5744   1.7069   2.9795 H              1 <1>                0.0247
     36 H133         1.6494   2.0519   1.4995 H              1 <1>                0.0247
     37 H141         1.1584   3.6719   4.8075 H              1 <1>                0.0247
     38 H142        -0.0876   2.5329   5.3705 H              1 <1>                0.0247
     39 H143         1.5944   1.9849   5.1705 H              1 <1>                0.0247
     40 H151        -0.2596   4.1739   2.7385 H              1 <1>                0.0247
     41 H152        -0.7686   2.8289   1.6895 H              1 <1>                0.0247
     42 H153        -1.4956   3.0239   3.3025 H              1 <1>                0.0247
     43 H171         0.7794  -1.9941  -6.0385 H              1 <1>                0.0278
     44 H172         2.0284  -2.9881  -5.2505 H              1 <1>                0.0278
     45 H173         0.4594  -3.7081  -5.6805 H              1 <1>                0.0278
     46 ****        -0.8129  -0.4141  -0.0148 LP             1 <1>                0.0000
     47 ****        -2.0741  -1.4281  -0.2330 LP             1 <1>                0.0000
     48 ****        -0.8785   1.0147   3.5859 LP             1 <1>                0.0000
     49 ****         0.4190  -2.1842   3.3198 LP             1 <1>                0.0000
     50 ****        -1.1249  -2.6893   3.4863 LP             1 <1>                0.0000
     51 ****        -2.0509   3.9413  -5.4135 LP             1 <1>                0.0000
@<TRIPOS>BOND
    1    1    2 ar    
    2    1    4 ar    
    3    1   21 1     
    4    2   13 ar    
    5    2   23 1     
    6    3   14 1     
    7    3    9 1     
    8    4    7 ar    
    9    4   24 1     
   10    5   17 1     
   11    5   16 1     
   12    5   25 1     
   13    6   15 1     
   14    6   26 1     
   15    7    9 ar    
   16    7   13 ar    
   17    8   21 3     
   18    9   10 ar    
   19   10   11 ar    
   20   10   27 1     
   21   11   12 ar    
   22   11   28 1     
   23   12   22 1     
   24   12   13 ar    
   25   14   15 1     
   26   14   29 1     
   27   14   30 1     
   28   15   16 1     
   29   15   31 1     
   30   16   32 1     
   31   16   33 1     
   32   17   18 1     
   33   17   19 1     
   34   17   20 1     
   35   18   34 1     
   36   18   35 1     
   37   18   36 1     
   38   19   37 1     
   39   19   38 1     
   40   19   39 1     
   41   20   40 1     
   42   20   41 1     
   43   20   42 1     
   44   22   43 1     
   45   22   44 1     
   46   22   45 1     
   47    3   46 1     
   48    3   47 1     
   49    5   48 1     
   50    6   49 1     
   51    6   50 1     
   52    8   51 1     
@<TRIPOS>SUBSTRUCTURE
      1 ****           1
@<TRIPOS>SET
LONE_PAIRS      STATIC     ATOMS    <user>   **** ""
6 46 47 48 49 50 51
DONOR_HYDROGENS      STATIC     ATOMS    <user>   **** ""
3 23 25 26
ATOM$BLUE        STATIC     ATOMS    COLORGROUP SYSTEM
6 46 47 48 49 50 51
ATOM$RED        STATIC     ATOMS    COLORGROUP SYSTEM
3 23 25 26
