#       Name:                C:\Users\porto\OneDrive\projekt\beta1\ligandy\L_5a8e.pdb L_5a8e.pdb 1
#       Creating user name   student
#       Creation time:       Mon Apr 01 15:37:49 2019


#       File generated by GOLD software.
#

@<TRIPOS>MOLECULE
C:\Users\porto\OneDrive\projekt\beta1\ligandy\L_5a8e.pdb L_5a8e.pdb 1|5a8e|mol2|1|dock1
    51    52     1
SMALL
GASTEIGER


@<TRIPOS>ATOM
      1 C1         -24.3094   6.8148  11.7449 C.ar           1 <1>                0.1185
      2 N1         -23.9863   5.5120  11.8632 N.pl3          1 <1>               -0.3459
      3 O1         -23.4137   7.8074  15.9572 O.3            1 <1>               -0.4887
      4 C2         -24.1587   7.5501  12.9074 C.ar           1 <1>               -0.0151
      5 N2         -24.1846   9.5916  20.0791 N.3            1 <1>               -0.3088
      6 O2         -24.6960   9.4452  17.5347 O.3            1 <1>               -0.3872
      7 C3         -23.7015   6.5823  13.8525 C.ar           1 <1>                0.0428
      8 N3         -25.0976   7.8181   9.5918 N.1            1 <1>               -0.1893
      9 C4         -23.3235   6.6116  15.2939 C.ar           1 <1>                0.1298
     10 C5         -22.9034   5.4289  15.9288 C.ar           1 <1>               -0.0190
     11 C6         -22.8198   4.2132  15.2498 C.ar           1 <1>               -0.0534
     12 C7         -23.1497   4.1021  13.9037 C.ar           1 <1>               -0.0263
     13 C8         -23.6106   5.2892  13.1447 C.ar           1 <1>                0.0539
     14 C9         -22.7946   8.0568  17.2195 C.3            1 <1>                0.1166
     15 C10        -23.2929   9.3651  17.7985 C.3            1 <1>                0.1015
     16 C11        -22.9780   9.4126  19.2955 C.3            1 <1>                0.0256
     17 C12        -24.1666  10.1163  21.4399 C.3            1 <1>                0.0108
     18 C13        -23.3106   9.1956  22.3094 C.3            1 <1>               -0.0473
     19 C14        -25.5902  10.0991  22.0030 C.3            1 <1>               -0.0473
     20 C15        -23.5986  11.5408  21.3988 C.3            1 <1>               -0.0473
     21 C16        -24.7051   7.3635  10.5914 C.1            1 <1>                0.1171
     22 C17        -23.0398   2.7927  13.1908 C.3            1 <1>               -0.0377
     23 HN1        -24.0521   4.9005  11.0626 H              1 <1>                0.1665
     24 H2         -24.3833   8.6062  12.9114 H              1 <1>                0.0653
     25 HN2        -24.5856   8.6638  20.0806 H              1 <1>                0.1225
     26 HO2        -25.1830   9.0818  18.2772 H              1 <1>                0.2100
     27 H5         -22.6336   5.4441  16.9747 H              1 <1>                0.0654
     28 H6         -22.4915   3.3253  15.7705 H              1 <1>                0.0622
     29 H91        -21.7139   8.1055  17.0900 H              1 <1>                0.0723
     30 H92        -23.0292   7.2432  17.9055 H              1 <1>                0.0723
     31 H10        -22.7871  10.1927  17.3002 H              1 <1>                0.0640
     32 H111       -22.4863   8.4863  19.5920 H              1 <1>                0.0451
     33 H112       -22.2899  10.2342  19.4951 H              1 <1>                0.0451
     34 H131       -23.2883   9.5759  23.3306 H              1 <1>                0.0247
     35 H132       -23.7363   8.1926  22.3058 H              1 <1>                0.0247
     36 H133       -22.2961   9.1604  21.9134 H              1 <1>                0.0247
     37 H141       -25.5843  10.4908  23.0205 H              1 <1>                0.0247
     38 H142       -26.2356  10.7189  21.3802 H              1 <1>                0.0247
     39 H143       -25.9658   9.0759  22.0104 H              1 <1>                0.0247
     40 H151       -23.5766  11.9529  22.4082 H              1 <1>                0.0247
     41 H152       -22.5868  11.5178  20.9942 H              1 <1>                0.0247
     42 H153       -24.2286  12.1662  20.7658 H              1 <1>                0.0247
     43 H171       -23.3429   2.9183  12.1509 H              1 <1>                0.0278
     44 H172       -22.0084   2.4434  13.2291 H              1 <1>                0.0278
     45 H173       -23.6885   2.0611  13.6722 H              1 <1>                0.0278
     46 ****       -23.0457   8.4954  15.3316 LP             1 <1>                0.0000
     47 ****       -24.3906   7.9706  16.0949 LP             1 <1>                0.0000
     48 ****       -24.6790  10.3442  19.6441 LP             1 <1>                0.0000
     49 ****       -24.9100   8.9238  16.7087 LP             1 <1>                0.0000
     50 ****       -24.9560  10.4016  17.4018 LP             1 <1>                0.0000
     51 ****       -25.4343   8.2079   8.7346 LP             1 <1>                0.0000
@<TRIPOS>BOND
    1    1    2 ar    
    2    1    4 ar    
    3    1   21 1     
    4    2   13 ar    
    5    2   23 1     
    6    3   14 1     
    7    3    9 1     
    8    4    7 ar    
    9    4   24 1     
   10    5   17 1     
   11    5   16 1     
   12    5   25 1     
   13    6   15 1     
   14    6   26 1     
   15    7    9 ar    
   16    7   13 ar    
   17    8   21 3     
   18    9   10 ar    
   19   10   11 ar    
   20   10   27 1     
   21   11   12 ar    
   22   11   28 1     
   23   12   22 1     
   24   12   13 ar    
   25   14   15 1     
   26   14   29 1     
   27   14   30 1     
   28   15   16 1     
   29   15   31 1     
   30   16   32 1     
   31   16   33 1     
   32   17   18 1     
   33   17   19 1     
   34   17   20 1     
   35   18   34 1     
   36   18   35 1     
   37   18   36 1     
   38   19   37 1     
   39   19   38 1     
   40   19   39 1     
   41   20   40 1     
   42   20   41 1     
   43   20   42 1     
   44   22   43 1     
   45   22   44 1     
   46   22   45 1     
   47    3   46 1     
   48    3   47 1     
   49    5   48 1     
   50    6   49 1     
   51    6   50 1     
   52    8   51 1     
@<TRIPOS>SUBSTRUCTURE
      1 ****           1
@<TRIPOS>SET
LONE_PAIRS      STATIC     ATOMS    <user>   **** ""
6 46 47 48 49 50 51
DONOR_HYDROGENS      STATIC     ATOMS    <user>   **** ""
3 23 25 26
ATOM$BLUE        STATIC     ATOMS    COLORGROUP SYSTEM
6 46 47 48 49 50 51
ATOM$RED        STATIC     ATOMS    COLORGROUP SYSTEM
3 23 25 26
@<TRIPOS>COMMENT
> <Gold.Version>
5.5

> <Gold.Id.Protein>
unknown|bialko_beta1|pdb

> <Gold.Protein.ActiveResidues>
 ALA86   ASP87   VAL90   VAL94   VAL95   GLY98   ALA99   LEU101  VAL102  CYS114 
 GLU115  TRP117  THR118  SER119  LEU120  ASP121  VAL122  CYS124  VAL125  THR126 
 SER128  SER173  PHE174  ILE177  CYS199  ASP200  PHE201  TYR207  SER215  PHE299 
 TRP303  PHE306  PHE307  ASN310  PHE325  VAL326  ASN329  TRP330  GLY332  TYR333 
 SER336 

> <Gold.Score>
     Score     S(PLP)   S(hbond)     S(cho)   S(metal)  DE(clash)   DE(tors)     intcor
     60.06     -56.03       2.00       0.00       0.00       0.00       1.25       0.54

> <Gold.PLP.Fitness>
60.0644

> <Gold.PLP.PLP>
-56.0317

> <Gold.PLP.part.hbond>
-2.0000

> <Gold.PLP.part.metal>
0.0000

> <Gold.PLP.part.buried>
-5.6866

> <Gold.PLP.part.nonpolar>
-52.5249

> <Gold.PLP.part.repulsive>
3.5868

> <Gold.PLP.ligand.clash>
0.0000

> <Gold.PLP.ligand.torsion>
1.2536

> <Gold.PLP.Chemscore.Hbond>
2.0000

> <Gold.PLP.Chemscore.CHOScore>
0.0000

> <Gold.PLP.Chemscore.Metal>
0.0000

> <Gold.Chemscore.Hbonds>
donor molecule, donor type, donor heavy atom, donor atom, acceptor molecule, acceptor atom, score
      L1  H     5    25       P1  2066  1.00
      L1  H     6    26       P1  2066  1.00

> <Gold.PLP.Chemscore.Internal.Correction>
0.5399

