#       Name:                C:\Users\porto\OneDrive\projekt\beta2\ligandy\L_6mxt.pdb L_6mxt.pdb 1
#       Creating user name   student
#       Creation time:       Mon Apr 08 16:36:39 2019


#       File generated by GOLD software.
#

@<TRIPOS>MOLECULE
C:\Users\porto\OneDrive\projekt\beta2\ligandy\L_6mxt.pdb L_6mxt.pdb 1|6mxt|mol2|1|dock94
    76    77     1
SMALL
GASTEIGER


@<TRIPOS>ATOM
      1 CAD        -39.2216   5.1303   9.8717 C.ar           1 <1>               -0.0617
      2 CAE        -38.5938   4.0363  10.4564 C.ar           1 <1>               -0.0615
      3 CAF        -38.6061   6.3748   9.8977 C.ar           1 <1>               -0.0615
      4 CAG        -37.3500   4.1888  11.0630 C.ar           1 <1>               -0.0586
      5 CAH        -37.3638   6.5281  10.5048 C.ar           1 <1>               -0.0586
      6 CAI        -27.6858  12.6745   5.3367 C.ar           1 <1>               -0.0195
      7 CAJ        -28.9895  12.6731   5.8166 C.ar           1 <1>               -0.0526
      8 CAK        -28.6901  10.4070   6.5935 C.ar           1 <1>               -0.0472
      9 CAL        -33.2655   7.0166   5.3357 C.3            1 <1>               -0.0518
     10 CAM        -33.0812   5.9134   6.3819 C.3            1 <1>               -0.0509
     11 CAN        -31.9017   7.5659   4.9130 C.3            1 <1>               -0.0404
     12 CAO        -34.4014   5.1631   6.5756 C.3            1 <1>               -0.0295
     13 CAP        -34.1414   3.7945  10.5882 C.3            1 <1>               -0.0292
     14 CAQ        -34.3825   5.3051  10.6767 C.3            1 <1>               -0.0470
     15 CAR        -26.5774   9.2860   6.2527 C.3            1 <1>                0.0727
     16 CAS        -31.1872   8.2016   6.1112 C.3            1 <1>               -0.0040
     17 CAT        -34.1966   4.0691   7.6209 C.3            1 <1>                0.0477
     18 CAU        -33.0495   3.5042   9.5597 C.3            1 <1>                0.0477
     19 CAV        -35.4932   5.5957  11.6957 C.3            1 <1>               -0.0276
     20 CAW        -31.1029  10.1710   7.5315 C.3            1 <1>                0.0261
     21 CAZ        -36.7342   5.4350  11.0896 C.ar           1 <1>               -0.0474
     22 NAX        -31.9255   9.3789   6.6065 N.3            1 <1>               -0.3132
     23 OAA        -26.3970   9.0145   7.6444 O.3            1 <1>               -0.3903
     24 OAB        -25.6148  11.5041   5.0340 O.3            1 <1>               -0.5064
     25 OAC        -31.7004  11.7672   5.8423 O.3            1 <1>               -0.3859
     26 OAY        -33.1299   4.4501   8.4933 O.3            1 <1>               -0.3798
     27 CBA        -26.8961  11.5454   5.4883 C.ar           1 <1>                0.1222
     28 CBB        -29.4894  11.5399   6.4464 C.ar           1 <1>               -0.0174
     29 CBC        -27.3861  10.4062   6.1134 C.ar           1 <1>                0.0195
     30 CBD        -30.7930  11.5435   6.9208 C.3            1 <1>                0.0926
     31 HAD        -40.1855   5.0145   9.3982 H              1 <1>                0.0618
     32 HAE        -39.0706   3.0674  10.4401 H              1 <1>                0.0618
     33 HAF        -39.0918   7.2265   9.4458 H              1 <1>                0.0618
     34 HAG        -36.8614   3.3381  11.5142 H              1 <1>                0.0620
     35 HAH        -36.8873   7.4973  10.5219 H              1 <1>                0.0620
     36 HAI        -27.2866  13.5509   4.8469 H              1 <1>                0.0654
     37 HAJ        -29.6094  13.5497   5.6989 H              1 <1>                0.0622
     38 HAK        -29.0866   9.5288   7.0814 H              1 <1>                0.0626
     39 HAL1       -33.7783   6.6086   4.4650 H              1 <1>                0.0266
     40 HAL2       -33.8658   7.8219   5.7588 H              1 <1>                0.0266
     41 HAM1       -32.7737   6.3585   7.3286 H              1 <1>                0.0266
     42 HAM2       -32.3141   5.2172   6.0435 H              1 <1>                0.0266
     43 HAN1       -32.0380   8.3142   4.1324 H              1 <1>                0.0277
     44 HAN2       -31.2917   6.7549   4.5146 H              1 <1>                0.0277
     45 HAO1       -34.7036   4.7110   5.6314 H              1 <1>                0.0287
     46 HAO2       -35.1659   5.8579   6.9221 H              1 <1>                0.0287
     47 HAP1       -33.8308   3.4185  11.5635 H              1 <1>                0.0287
     48 HAP2       -35.0638   3.2967  10.2890 H              1 <1>                0.0287
     49 HAQ1       -34.6790   5.6834   9.6986 H              1 <1>                0.0269
     50 HAQ2       -33.4639   5.8012  10.9895 H              1 <1>                0.0269
     51 HAR1       -27.0562   8.4309   5.7755 H              1 <1>                0.0608
     52 HAR2       -25.6084   9.4779   5.7915 H              1 <1>                0.0608
     53 HAS1       -30.1814   8.5020   5.8161 H              1 <1>                0.0424
     54 HAS2       -31.0966   7.4673   6.9115 H              1 <1>                0.0424
     55 HAT1       -33.9414   3.1344   7.1224 H              1 <1>                0.0560
     56 HAT2       -35.1114   3.9437   8.2000 H              1 <1>                0.0560
     57 HAU1       -33.1832   2.4977   9.1632 H              1 <1>                0.0560
     58 HAU2       -32.0725   3.5778  10.0367 H              1 <1>                0.0560
     59 HAV1       -35.3958   6.6190  12.0570 H              1 <1>                0.0313
     60 HAV2       -35.4065   4.9048  12.5343 H              1 <1>                0.0313
     61 HAW1       -31.6393  10.3046   8.4710 H              1 <1>                0.0453
     62 HAW2       -30.1699   9.6433   7.7308 H              1 <1>                0.0453
     63 HNAX       -32.1883   9.9649   5.8266 H              1 <1>                0.1220
     64 HOAA       -25.6075   9.4613   7.9587 H              1 <1>                0.2098
     65 HOAB       -25.1621  12.3142   5.2775 H              1 <1>                0.2921
     66 HOAC       -32.5689  11.4352   6.0802 H              1 <1>                0.2103
     67 HBD        -30.9122  12.3212   7.6749 H              1 <1>                0.0656
     68 ****       -32.7370   9.0532   7.0916 LP             1 <1>                0.0000
     69 ****       -26.2989   8.0288   7.7815 LP             1 <1>                0.0000
     70 ****       -27.1917   9.3445   8.1539 LP             1 <1>                0.0000
     71 ****       -25.6172  11.4101   4.0384 LP             1 <1>                0.0000
     72 ****       -25.1419  10.7228   5.4414 LP             1 <1>                0.0000
     73 ****       -31.3731  11.2897   5.0269 LP             1 <1>                0.0000
     74 ****       -31.7587  12.7475   5.6536 LP             1 <1>                0.0000
     75 ****       -33.3083   5.3613   8.8647 LP             1 <1>                0.0000
     76 ****       -32.2679   4.4597   7.9865 LP             1 <1>                0.0000
@<TRIPOS>BOND
    1    1    3 ar    
    2    1    2 ar    
    3    1   31 1     
    4    2    4 ar    
    5    2   32 1     
    6    3    5 ar    
    7    3   33 1     
    8    4   21 ar    
    9    4   34 1     
   10    5   21 ar    
   11    5   35 1     
   12    6   27 ar    
   13    6    7 ar    
   14    6   36 1     
   15    7   28 ar    
   16    7   37 1     
   17    8   29 ar    
   18    8   28 ar    
   19    8   38 1     
   20    9   11 1     
   21    9   10 1     
   22    9   39 1     
   23    9   40 1     
   24   10   12 1     
   25   10   41 1     
   26   10   42 1     
   27   11   16 1     
   28   11   43 1     
   29   11   44 1     
   30   12   17 1     
   31   12   45 1     
   32   12   46 1     
   33   13   18 1     
   34   13   14 1     
   35   13   47 1     
   36   13   48 1     
   37   14   19 1     
   38   14   49 1     
   39   14   50 1     
   40   15   23 1     
   41   15   29 1     
   42   15   51 1     
   43   15   52 1     
   44   16   22 1     
   45   16   53 1     
   46   16   54 1     
   47   17   26 1     
   48   17   55 1     
   49   17   56 1     
   50   18   26 1     
   51   18   57 1     
   52   18   58 1     
   53   19   21 1     
   54   19   59 1     
   55   19   60 1     
   56   20   30 1     
   57   20   22 1     
   58   20   61 1     
   59   20   62 1     
   60   22   63 1     
   61   23   64 1     
   62   24   27 1     
   63   24   65 1     
   64   25   30 1     
   65   25   66 1     
   66   27   29 ar    
   67   28   30 1     
   68   30   67 1     
   69   22   68 1     
   70   23   69 1     
   71   23   70 1     
   72   24   71 1     
   73   24   72 1     
   74   25   73 1     
   75   25   74 1     
   76   26   75 1     
   77   26   76 1     
@<TRIPOS>SUBSTRUCTURE
      1 ****           1
@<TRIPOS>SET
LONE_PAIRS      STATIC     ATOMS    <user>   **** ""
9 68 69 70 71 72 73 74 75 76
DONOR_HYDROGENS      STATIC     ATOMS    <user>   **** ""
4 63 64 65 66
ATOM$BLUE        STATIC     ATOMS    COLORGROUP SYSTEM
9 68 69 70 71 72 73 74 75 76
ATOM$RED        STATIC     ATOMS    COLORGROUP SYSTEM
4 63 64 65 66
@<TRIPOS>COMMENT
> <Gold.Version>
5.5

> <Gold.Id.Protein>
unknown|dok_beta2|pdb

> <Gold.Protein.RotatedTorsions>
[ 4175 4166 4165 4163 ] final -157.84 input -179.98 | X-H torsion
[ 1294 1290 1288 1285 ] final   20.00 input -179.99 | X-H torsion
[ 4033 4024 4023 4021 ] final   33.50 input  179.98 | X-H torsion
[ 1412 1408 1406 1403 ] final   51.53 input -179.99 | X-H torsion
[ 2830 2825 2824 2821 ] final -153.69 input -179.98 | X-H torsion
[ 2723 2714 2713 2711 ] final -140.31 input -179.98 | X-H torsion
[ 2773 2768 2767 2764 ] final  -89.40 input  180.00 | X-H torsion

> <Gold.Protein.ActiveResidues>
 TRP109  THR110  ASP113  VAL114  VAL117  THR118  PHE193  TYR199  SER203  SER207 
 PHE208  TRP286  PHE289  PHE290  ASN293  TYR308  ASN312  TYR316 

> <Gold.Protein.RotatedAtoms>
  -35.4223    4.6341    1.7356 H   0  0  0  0  0  0  0  0  0  0  0  0  # atno 1294 bound_to 1290
  -28.2943   14.8260    2.8771 H   0  0  0  0  0  0  0  0  0  0  0  0  # atno 1412 bound_to 1408
  -26.4910    7.9253    2.9147 H   0  0  0  0  0  0  0  0  0  0  0  0  # atno 2723 bound_to 2714
  -24.4397   10.2504    3.9039 H   0  0  0  0  0  0  0  0  0  0  0  0  # atno 2773 bound_to 2768
  -25.0701   13.2386    2.5670 H   0  0  0  0  0  0  0  0  0  0  0  0  # atno 2830 bound_to 2825
  -29.3756    6.1704   10.6626 H   0  0  0  0  0  0  0  0  0  0  0  0  # atno 4033 bound_to 4024
  -36.1099    9.1883    7.6857 H   0  0  0  0  0  0  0  0  0  0  0  0  # atno 4175 bound_to 4166
  -37.6092    8.9417    7.1836 LP  0  0  0  0  0  0  0  0  0  0  0  0  # atno 4597 bound_to 4166
  -37.0662    8.2475    8.5583 LP  0  0  0  0  0  0  0  0  0  0  0  0  # atno 4598 bound_to 4166
  -34.1510    4.2427    2.6255 LP  0  0  0  0  0  0  0  0  0  0  0  0  # atno 4603 bound_to 1290
  -34.3738    3.5752    1.1519 LP  0  0  0  0  0  0  0  0  0  0  0  0  # atno 4604 bound_to 1290
  -28.0090    5.4491   11.0804 LP  0  0  0  0  0  0  0  0  0  0  0  0  # atno 4607 bound_to 4024
  -28.3009    6.9961   11.5144 LP  0  0  0  0  0  0  0  0  0  0  0  0  # atno 4608 bound_to 4024
  -26.7473   15.1839    3.0770 LP  0  0  0  0  0  0  0  0  0  0  0  0  # atno 4611 bound_to 1408
  -27.2831   14.5631    1.6648 LP  0  0  0  0  0  0  0  0  0  0  0  0  # atno 4612 bound_to 1408
  -23.5823   12.9117    3.0566 LP  0  0  0  0  0  0  0  0  0  0  0  0  # atno 4613 bound_to 2825
  -23.8710   14.1599    2.0441 LP  0  0  0  0  0  0  0  0  0  0  0  0  # atno 4614 bound_to 2825

> <Gold.Score>
     Score     S(PLP)   S(hbond)     S(cho)   S(metal)  DE(clash)   DE(tors)     intcor
    100.07    -102.16       2.00       0.00       0.00       5.32       2.02       1.28

> <Gold.PLP.Fitness>
100.0731

> <Gold.PLP.PLP>
-102.1586

> <Gold.PLP.part.hbond>
-5.0691

> <Gold.PLP.part.metal>
0.0000

> <Gold.PLP.part.buried>
-7.0109

> <Gold.PLP.part.nonpolar>
-91.4357

> <Gold.PLP.part.repulsive>
0.0339

> <Gold.PLP.ligand.clash>
5.3225

> <Gold.PLP.ligand.torsion>
2.0237

> <Gold.PLP.Chemscore.Hbond>
2.0000

> <Gold.PLP.Chemscore.CHOScore>
0.0000

> <Gold.PLP.Chemscore.Metal>
0.0000

> <Gold.Chemscore.Hbonds>
donor molecule, donor type, donor heavy atom, donor atom, acceptor molecule, acceptor atom, score
      L1  H    25    66       P1  1334  1.00
      P1  H  2768  2773       L1    24  1.00

> <Gold.PLP.Chemscore.Internal.Correction>
1.2845

