#       Name:                C:\Users\porto\OneDrive\projekt\beta1\ligandy\2y00 2y00 1
#       Creating user name   student
#       Creation time:       Wed Apr 10 09:55:37 2019


#       File generated by GOLD software.
#

@<TRIPOS>MOLECULE
C:\Users\porto\OneDrive\projekt\beta1\ligandy\2y00 2y00 1|2y00|mol2|1|dock4
    52    53     1
SMALL
GASTEIGER


@<TRIPOS>ATOM
      1 C1         -23.7131   5.3372  16.9279 C.3            1 <1>               -0.0150
      2 N1         -22.9938   7.2877  18.2998 N.3            1 <1>               -0.3132
      3 O1         -24.7095   4.6263  12.1418 O.3            1 <1>               -0.5033
      4 C2         -23.5435   4.5949  15.6151 C.ar           1 <1>               -0.0425
      5 O2         -23.0517   2.5483  12.0097 O.3            1 <1>               -0.5033
      6 C3         -22.6710   3.4946  15.5554 C.ar           1 <1>               -0.0549
      7 O3         -23.1685  11.0506  25.9409 O.3            1 <1>               -0.5068
      8 C4         -22.4505   2.7869  14.3637 C.ar           1 <1>               -0.0163
      9 C5         -23.1514   3.1684  13.2174 C.ar           1 <1>                0.1582
     10 C6         -24.0745   4.3084  13.2850 C.ar           1 <1>                0.1585
     11 C7         -24.2583   4.9983  14.4760 C.ar           1 <1>               -0.0133
     12 C8         -22.9057   6.6384  16.9874 C.3            1 <1>                0.0001
     13 C9         -22.3919   8.5984  18.5640 C.3            1 <1>                0.0051
     14 C10        -20.9972   8.7149  17.9383 C.3            1 <1>               -0.0497
     15 C11        -22.2754   8.8937  20.0534 C.3            1 <1>               -0.0338
     16 C12        -23.6207   8.8229  20.7725 C.3            1 <1>               -0.0263
     17 C13        -23.5035   9.4506  22.1392 C.ar           1 <1>               -0.0471
     18 C14        -23.7198  10.8223  22.3194 C.ar           1 <1>               -0.0551
     19 C15        -23.6121  11.3635  23.5980 C.ar           1 <1>               -0.0199
     20 C16        -23.2746  10.5460  24.6828 C.ar           1 <1>                0.1169
     21 C17        -23.0542   9.1915  24.5080 C.ar           1 <1>               -0.0199
     22 C18        -23.1726   8.6447  23.2290 C.ar           1 <1>               -0.0551
     23 H11        -23.4157   4.6883  17.7517 H              1 <1>                0.0325
     24 H12        -24.7687   5.5582  17.0853 H              1 <1>                0.0325
     25 HN1        -23.9637   7.4346  18.5388 H              1 <1>                0.1222
     26 HO1        -25.3925   5.2754  12.3245 H              1 <1>                0.2923
     27 HO2        -22.5409   1.7412  12.1048 H              1 <1>                0.2923
     28 H3         -22.1474   3.1719  16.4427 H              1 <1>                0.0621
     29 HO3        -23.3440  11.9943  25.9238 H              1 <1>                0.2921
     30 H4         -21.7496   1.9647  14.3454 H              1 <1>                0.0655
     31 H7         -24.9395   5.8347  14.5333 H              1 <1>                0.0658
     32 H81        -23.2648   7.3229  16.2196 H              1 <1>                0.0427
     33 H82        -21.8614   6.4275  16.7563 H              1 <1>                0.0427
     34 H9         -23.0294   9.3611  18.1155 H              1 <1>                0.0458
     35 H101       -20.3602   7.9149  18.3167 H              1 <1>                0.0245
     36 H102       -21.0765   8.6336  16.8541 H              1 <1>                0.0245
     37 H103       -20.5614   9.6793  18.1989 H              1 <1>                0.0245
     38 H111       -21.8408   9.8836  20.1940 H              1 <1>                0.0283
     39 H112       -21.5832   8.1863  20.5100 H              1 <1>                0.0283
     40 H121       -23.9221   7.7808  20.8761 H              1 <1>                0.0314
     41 H122       -24.3724   9.3572  20.1907 H              1 <1>                0.0314
     42 H14        -23.9666  11.4462  21.4732 H              1 <1>                0.0621
     43 H15        -23.7889  12.4168  23.7549 H              1 <1>                0.0654
     44 H17        -22.7947   8.5731  25.3544 H              1 <1>                0.0654
     45 H18        -23.0052   7.5868  23.0876 H              1 <1>                0.0621
     46 ****       -22.4541   6.6306  18.8261 LP             1 <1>                0.0000
     47 ****       -25.1261   3.8047  11.7525 LP             1 <1>                0.0000
     48 ****       -24.0530   5.0075  11.4909 LP             1 <1>                0.0000
     49 ****       -22.5959   3.1564  11.3597 LP             1 <1>                0.0000
     50 ****       -23.9666   2.3258  11.6729 LP             1 <1>                0.0000
     51 ****       -22.2443  10.8898  26.2875 LP             1 <1>                0.0000
     52 ****       -23.8316  10.5992  26.5379 LP             1 <1>                0.0000
@<TRIPOS>BOND
    1    1    4 1     
    2    1   12 1     
    3    1   23 1     
    4    1   24 1     
    5    2   12 1     
    6    2   13 1     
    7    2   25 1     
    8    3   10 1     
    9    3   26 1     
   10    4    6 ar    
   11    4   11 ar    
   12    5    9 1     
   13    5   27 1     
   14    6    8 ar    
   15    6   28 1     
   16    7   20 1     
   17    7   29 1     
   18    8    9 ar    
   19    8   30 1     
   20    9   10 ar    
   21   10   11 ar    
   22   11   31 1     
   23   12   32 1     
   24   12   33 1     
   25   13   14 1     
   26   13   15 1     
   27   13   34 1     
   28   14   35 1     
   29   14   36 1     
   30   14   37 1     
   31   15   16 1     
   32   15   38 1     
   33   15   39 1     
   34   16   17 1     
   35   16   40 1     
   36   16   41 1     
   37   17   18 ar    
   38   17   22 ar    
   39   18   19 ar    
   40   18   42 1     
   41   19   20 ar    
   42   19   43 1     
   43   20   21 ar    
   44   21   22 ar    
   45   21   44 1     
   46   22   45 1     
   47    2   46 1     
   48    3   47 1     
   49    3   48 1     
   50    5   49 1     
   51    5   50 1     
   52    7   51 1     
   53    7   52 1     
@<TRIPOS>SUBSTRUCTURE
      1 ****           1
@<TRIPOS>SET
LONE_PAIRS      STATIC     ATOMS    <user>   **** ""
7 46 47 48 49 50 51 52
DONOR_HYDROGENS      STATIC     ATOMS    <user>   **** ""
4 25 26 27 29
ATOM$BLUE        STATIC     ATOMS    COLORGROUP SYSTEM
7 46 47 48 49 50 51 52
ATOM$RED        STATIC     ATOMS    COLORGROUP SYSTEM
4 25 26 27 29
@<TRIPOS>COMMENT
> <Gold.Version>
5.6

> <Gold.Id.Protein>
unknown|bialko_beta1 1|pdb

> <Gold.Protein.ActiveResidues>
 ALA86   ASP87   VAL90   VAL94   VAL95   GLY98   ALA99   LEU101  VAL102  CYS114 
 GLU115  TRP117  THR118  SER119  LEU120  ASP121  VAL122  CYS124  VAL125  THR126 
 SER128  SER173  PHE174  ILE177  CYS199  ASP200  PHE201  TYR207  SER215  PHE299 
 TRP303  PHE306  PHE307  ASN310  PHE325  VAL326  ASN329  TRP330  GLY332  TYR333 
 SER336 

> <Gold.Score>
     Fitness  S(hb_ext) S(vdw_ext)  S(hb_int)    S(int)      intcor
     49.38       1.97      36.32       0.00      -2.53      -6.77

> <Gold.Goldscore.Fitness>
49.3844

> <Gold.Goldscore.Internal.Vdw>
-7.7761

> <Gold.Goldscore.Internal.Torsion>
-1.5199

> <Gold.Goldscore.External.Vdw>
36.3207

> <Gold.Goldscore.Internal.HBond>
0.0000

> <Gold.Goldscore.External.HBond>
1.9720

> <Gold.Goldscore.Internal.Correction>
-6.7674

> <Gold.Goldscore.Hbonds>
donor molecule, donor type, donor heavy atom, donor atom, acceptor molecule, acceptor atom, score
      L1  H     2    25       P1  2066  0.99

> <Gold.Goldscore.Internal.Vdw.Weighted>
-7.7761

> <Gold.Goldscore.Internal.Torsion.Weighted>
-1.5199

> <Gold.Goldscore.External.Vdw.Weighted>
49.9409

> <Gold.Goldscore.Internal.HBond.Weighted>
0.0000

> <Gold.Goldscore.External.HBond.Weighted>
1.9720

> <Gold.Goldscore.Internal.Correction.Weighted>
-6.7674

