#       Name:                C:\Users\porto\OneDrive\projekt\beta2\ligandy\L_3ny8.pdb L_3ny8.pdb 1
#       Creating user name   student
#       Creation time:       Mon Apr 08 16:04:11 2019


#       File generated by GOLD software.
#

@<TRIPOS>MOLECULE
C:\Users\porto\OneDrive\projekt\beta2\ligandy\L_3ny8.pdb L_3ny8.pdb 1|3ny8|mol2|1|dock56
    52    53     1
SMALL
GASTEIGER


@<TRIPOS>ATOM
      1 C1         -26.6543  10.6983   5.9196 C.3            1 <1>               -0.0268
      2 N1         -34.6614   6.6253   8.1516 N.3            1 <1>               -0.3087
      3 O1         -30.6414   8.3199   7.3700 O.3            1 <1>               -0.4891
      4 C2         -26.5274   9.2030   5.8020 C.3            1 <1>               -0.0449
      5 O2         -32.0778   6.4459   9.0028 O.3            1 <1>               -0.3869
      6 C3         -27.5826   8.5834   6.6925 C.3            1 <1>               -0.0237
      7 C4         -28.7067   9.6482   6.6394 C.ar           1 <1>               -0.0023
      8 C5         -28.1608  10.8599   6.1916 C.ar           1 <1>               -0.0378
      9 C6         -28.9863  11.9638   6.0149 C.ar           1 <1>               -0.0468
     10 C7         -28.3991  13.2704   5.4995 C.3            1 <1>               -0.0394
     11 C8         -30.3463  11.8855   6.2929 C.ar           1 <1>               -0.0551
     12 C9         -30.9004  10.6830   6.7289 C.ar           1 <1>               -0.0194
     13 C10        -30.0857   9.5521   6.8862 C.ar           1 <1>                0.1241
     14 C11        -32.0050   7.9569   7.1249 C.3            1 <1>                0.1169
     15 C12        -32.2712   6.5041   7.6076 C.3            1 <1>                0.1041
     16 C13        -33.7016   6.0048   7.2420 C.3            1 <1>                0.0342
     17 C14        -34.0745   6.4021   5.8199 C.3            1 <1>               -0.0472
     18 C15        -35.6889   5.7196   8.6315 C.3            1 <1>                0.0023
     19 C16        -35.0219   4.5036   9.2567 C.3            1 <1>               -0.0499
     20 C17        -36.5203   6.4081   9.7092 C.3            1 <1>               -0.0499
     21 H11        -26.4134  11.1547   4.9591 H              1 <1>                0.0313
     22 H12        -26.0950  11.0380   6.7913 H              1 <1>                0.0313
     23 HN1        -34.1760   6.9810   8.9623 H              1 <1>                0.1225
     24 H21        -25.5391   8.8944   6.1428 H              1 <1>                0.0272
     25 H22        -26.7034   8.9042   4.7687 H              1 <1>                0.0272
     26 HO2        -32.6860   7.0488   9.4360 H              1 <1>                0.2100
     27 H31        -27.1985   8.5186   7.7102 H              1 <1>                0.0314
     28 H32        -27.9411   7.6612   6.2345 H              1 <1>                0.0314
     29 H71        -29.1881  14.0192   5.4249 H              1 <1>                0.0278
     30 H72        -27.6308  13.6203   6.1879 H              1 <1>                0.0278
     31 H73        -27.9582  13.1079   4.5158 H              1 <1>                0.0278
     32 H8         -30.9732  12.7566   6.1711 H              1 <1>                0.0621
     33 H9         -31.9571  10.6224   6.9459 H              1 <1>                0.0654
     34 H111       -32.2139   8.0284   6.0578 H              1 <1>                0.0723
     35 H112       -32.6652   8.6428   7.6567 H              1 <1>                0.0723
     36 H12        -31.5451   5.8450   7.1317 H              1 <1>                0.0643
     37 H13        -33.7489   4.9207   7.3436 H              1 <1>                0.0484
     38 H141       -33.3716   5.9509   5.1200 H              1 <1>                0.0245
     39 H142       -35.0825   6.0534   5.5974 H              1 <1>                0.0245
     40 H143       -34.0359   7.4872   5.7232 H              1 <1>                0.0245
     41 H15        -36.3300   5.4105   7.8062 H              1 <1>                0.0455
     42 H161       -35.7858   3.8166   9.6202 H              1 <1>                0.0245
     43 H162       -34.4084   4.0007   8.5097 H              1 <1>                0.0245
     44 H163       -34.3929   4.8210  10.0889 H              1 <1>                0.0245
     45 H171       -37.2911   5.7244  10.0665 H              1 <1>                0.0245
     46 H172       -35.8752   6.6935  10.5399 H              1 <1>                0.0245
     47 H173       -36.9904   7.2984   9.2922 H              1 <1>                0.0245
     48 ****       -35.1070   7.3471   7.6221 LP             1 <1>                0.0000
     49 ****       -30.5289   8.3326   8.3636 LP             1 <1>                0.0000
     50 ****       -30.0821   7.5881   6.9806 LP             1 <1>                0.0000
     51 ****       -31.1375   6.7078   9.2201 LP             1 <1>                0.0000
     52 ****       -32.2470   5.5141   9.3240 LP             1 <1>                0.0000
@<TRIPOS>BOND
    1    1    4 1     
    2    1    8 1     
    3    1   21 1     
    4    1   22 1     
    5    2   16 1     
    6    2   18 1     
    7    2   23 1     
    8    3   13 1     
    9    3   14 1     
   10    4    6 1     
   11    4   24 1     
   12    4   25 1     
   13    5   15 1     
   14    5   26 1     
   15    6    7 1     
   16    6   27 1     
   17    6   28 1     
   18    7    8 ar    
   19    7   13 ar    
   20    8    9 ar    
   21    9   10 1     
   22    9   11 ar    
   23   10   29 1     
   24   10   30 1     
   25   10   31 1     
   26   11   12 ar    
   27   11   32 1     
   28   12   13 ar    
   29   12   33 1     
   30   14   15 1     
   31   14   34 1     
   32   14   35 1     
   33   15   16 1     
   34   15   36 1     
   35   16   17 1     
   36   16   37 1     
   37   17   38 1     
   38   17   39 1     
   39   17   40 1     
   40   18   19 1     
   41   18   20 1     
   42   18   41 1     
   43   19   42 1     
   44   19   43 1     
   45   19   44 1     
   46   20   45 1     
   47   20   46 1     
   48   20   47 1     
   49    2   48 1     
   50    3   49 1     
   51    3   50 1     
   52    5   51 1     
   53    5   52 1     
@<TRIPOS>SUBSTRUCTURE
      1 ****           1
@<TRIPOS>SET
LONE_PAIRS      STATIC     ATOMS    <user>   **** ""
5 48 49 50 51 52
DONOR_HYDROGENS      STATIC     ATOMS    <user>   **** ""
2 23 26
ATOM$BLUE        STATIC     ATOMS    COLORGROUP SYSTEM
5 48 49 50 51 52
ATOM$RED        STATIC     ATOMS    COLORGROUP SYSTEM
2 23 26
@<TRIPOS>COMMENT
> <Gold.Version>
5.5

> <Gold.Id.Protein>
unknown|dok_beta2|pdb

> <Gold.Protein.RotatedTorsions>
[ 4175 4166 4165 4163 ] final  -56.93 input -179.98 | X-H torsion
[ 1294 1290 1288 1285 ] final  144.53 input -179.99 | X-H torsion
[ 4033 4024 4023 4021 ] final -138.06 input  179.98 | X-H torsion
[ 1412 1408 1406 1403 ] final  -45.51 input -179.99 | X-H torsion
[ 2830 2825 2824 2821 ] final  -75.23 input -179.98 | X-H torsion
[ 2723 2714 2713 2711 ] final -156.25 input -179.98 | X-H torsion
[ 2773 2768 2767 2764 ] final  -17.67 input  180.00 | X-H torsion

> <Gold.Protein.ActiveResidues>
 TRP109  THR110  ASP113  VAL114  VAL117  THR118  PHE193  TYR199  SER203  SER207 
 PHE208  TRP286  PHE289  PHE290  ASN293  TYR308  ASN312  TYR316 

> <Gold.Protein.RotatedAtoms>
  -34.3225    3.5922    1.2151 H   0  0  0  0  0  0  0  0  0  0  0  0  # atno 1294 bound_to 1290
  -27.0573   15.2112    3.2769 H   0  0  0  0  0  0  0  0  0  0  0  0  # atno 1412 bound_to 1408
  -26.6415    7.7252    2.9309 H   0  0  0  0  0  0  0  0  0  0  0  0  # atno 2723 bound_to 2714
  -23.8229   10.9279    3.3706 H   0  0  0  0  0  0  0  0  0  0  0  0  # atno 2773 bound_to 2768
  -24.5214   14.0764    2.0141 H   0  0  0  0  0  0  0  0  0  0  0  0  # atno 2830 bound_to 2825
  -27.7626    6.1074   11.4718 H   0  0  0  0  0  0  0  0  0  0  0  0  # atno 4033 bound_to 4024
  -36.7772    8.3542    8.5834 H   0  0  0  0  0  0  0  0  0  0  0  0  # atno 4175 bound_to 4166
  -36.2211    9.3038    7.4215 LP  0  0  0  0  0  0  0  0  0  0  0  0  # atno 4597 bound_to 4166
  -37.7587    8.7549    7.3846 LP  0  0  0  0  0  0  0  0  0  0  0  0  # atno 4598 bound_to 4166
  -35.4686    4.6124    1.6700 LP  0  0  0  0  0  0  0  0  0  0  0  0  # atno 4603 bound_to 1290
  -34.2023    4.2912    2.6497 LP  0  0  0  0  0  0  0  0  0  0  0  0  # atno 4604 bound_to 1290
  -29.0336    7.0247   11.1469 LP  0  0  0  0  0  0  0  0  0  0  0  0  # atno 4607 bound_to 4024
  -28.9564    5.4861   10.6051 LP  0  0  0  0  0  0  0  0  0  0  0  0  # atno 4608 bound_to 4024
  -26.9408   14.6697    1.7755 LP  0  0  0  0  0  0  0  0  0  0  0  0  # atno 4611 bound_to 1408
  -28.3786   14.6758    2.5497 LP  0  0  0  0  0  0  0  0  0  0  0  0  # atno 4612 bound_to 1408
  -24.7638   12.7968    2.9437 LP  0  0  0  0  0  0  0  0  0  0  0  0  # atno 4613 bound_to 2825
  -23.2615   13.4014    2.7334 LP  0  0  0  0  0  0  0  0  0  0  0  0  # atno 4614 bound_to 2825

> <Gold.Score>
     Score     S(PLP)   S(hbond)     S(cho)   S(metal)  DE(clash)   DE(tors)     intcor
     66.60     -63.01       2.00       0.00       0.00       0.00       1.25       0.09

> <Gold.PLP.Fitness>
66.6046

> <Gold.PLP.PLP>
-63.0086

> <Gold.PLP.part.hbond>
-2.0285

> <Gold.PLP.part.metal>
0.0000

> <Gold.PLP.part.buried>
-5.0032

> <Gold.PLP.part.nonpolar>
-56.3327

> <Gold.PLP.part.repulsive>
0.0278

> <Gold.PLP.ligand.clash>
0.0000

> <Gold.PLP.ligand.torsion>
1.2466

> <Gold.PLP.Chemscore.Hbond>
2.0000

> <Gold.PLP.Chemscore.CHOScore>
0.0000

> <Gold.PLP.Chemscore.Metal>
0.0000

> <Gold.Chemscore.Hbonds>
donor molecule, donor type, donor heavy atom, donor atom, acceptor molecule, acceptor atom, score
      L1  H     2    23       P1  4098  1.00
      L1  H     5    26       P1  4098  1.00

> <Gold.PLP.Chemscore.Internal.Correction>
0.0892

