#       Name:                C:\Users\porto\OneDrive\projekt\beta2\ligandy\L_3ny9.pdb L_3ny9.pdb 1
#       Creating user name   student
#       Creation time:       Mon Apr 08 14:20:20 2019


#       File generated by GOLD software.
#

@<TRIPOS>MOLECULE
C:\Users\porto\OneDrive\projekt\beta2\ligandy\L_3ny9.pdb L_3ny9.pdb 1|3ny9|mol2|1|dock6
    58    59     1
SMALL
GASTEIGER


@<TRIPOS>ATOM
      1 C1         -34.2351   3.1315   8.8995 C.2            1 <1>                0.3751
      2 N1         -28.6553  10.9433   6.0356 N.3            1 <1>               -0.3112
      3 O1         -35.1685   2.4094   8.5925 O.2            1 <1>               -0.2415
      4 C2         -33.6277   1.7127  10.9049 C.3            1 <1>                0.0901
      5 O2         -33.5140   2.9270  10.1517 O.3            1 <1>               -0.4593
      6 C3         -32.6852   0.6738  10.3328 C.3            1 <1>               -0.0306
      7 O3         -34.3770   4.3885   6.7535 O.3            1 <1>               -0.4478
      8 C4         -33.8403   4.2355   7.9938 C.ar           1 <1>                0.2156
      9 O4         -31.3054   7.9513   7.3524 O.3            1 <1>               -0.4886
     10 C5         -32.8725   5.3365   8.2108 C.ar           1 <1>                0.0131
     11 O5         -32.0149  10.4698   7.4464 O.3            1 <1>               -0.3872
     12 C6         -31.9826   5.6986   9.3706 C.3            1 <1>               -0.0352
     13 C7         -32.8723   6.1247   7.0483 C.ar           1 <1>                0.0655
     14 C8         -33.8044   5.4750   6.2324 C.ar           1 <1>                0.1398
     15 C9         -34.0965   5.9582   4.9612 C.ar           1 <1>               -0.0185
     16 C10        -33.4445   7.1027   4.4996 C.ar           1 <1>               -0.0548
     17 C11        -32.5145   7.7561   5.3045 C.ar           1 <1>               -0.0191
     18 C12        -32.2167   7.2713   6.5796 C.ar           1 <1>                0.1316
     19 C13        -30.3092   8.8521   6.8526 C.3            1 <1>                0.1166
     20 C14        -30.9522  10.2032   6.5264 C.3            1 <1>                0.1015
     21 C15        -29.9482  11.3495   6.6141 C.3            1 <1>                0.0254
     22 C16        -27.7290  12.1007   5.9387 C.3            1 <1>                0.0021
     23 C17        -26.4806  11.6953   5.1603 C.3            1 <1>               -0.0499
     24 C18        -28.4003  13.2983   5.2731 C.3            1 <1>               -0.0499
     25 HN1        -28.2314  10.2371   6.6207 H              1 <1>                0.1223
     26 H21        -34.6519   1.3444  10.8475 H              1 <1>                0.0695
     27 H22        -33.3670   1.9052  11.9456 H              1 <1>                0.0695
     28 H31        -32.7712  -0.2500  10.9054 H              1 <1>                0.0262
     29 H32        -32.9446   0.4816   9.2920 H              1 <1>                0.0262
     30 H33        -31.6609   1.0415  10.3889 H              1 <1>                0.0262
     31 HO5        -32.8088  10.7039   6.9603 H              1 <1>                0.2100
     32 H61        -31.4145   6.5968   9.1269 H              1 <1>                0.0279
     33 H62        -32.5942   5.8849  10.2539 H              1 <1>                0.0279
     34 H63        -31.2950   4.8769   9.5719 H              1 <1>                0.0279
     35 H9         -34.8206   5.4485   4.3431 H              1 <1>                0.0654
     36 H10        -33.6603   7.4869   3.5131 H              1 <1>                0.0620
     37 H11        -32.0178   8.6447   4.9436 H              1 <1>                0.0654
     38 H131       -29.8629   8.4352   5.9503 H              1 <1>                0.0723
     39 H132       -29.5343   8.9912   7.6065 H              1 <1>                0.0723
     40 H14        -31.3596  10.1663   5.5161 H              1 <1>                0.0640
     41 H151       -30.3342  12.2127   6.0707 H              1 <1>                0.0450
     42 H152       -29.8065  11.6292   7.6583 H              1 <1>                0.0450
     43 H16        -27.4297  12.3883   6.9461 H              1 <1>                0.0455
     44 H171       -25.8031  12.5464   5.0909 H              1 <1>                0.0245
     45 H172       -25.9813  10.8746   5.6757 H              1 <1>                0.0245
     46 H173       -26.7642  11.3750   4.1581 H              1 <1>                0.0245
     47 H181       -27.6942  14.1274   5.2187 H              1 <1>                0.0245
     48 H182       -28.7175  13.0246   4.2670 H              1 <1>                0.0245
     49 H183       -29.2694  13.5993   5.8580 H              1 <1>                0.0245
     50 ****       -28.8230  10.5831   5.1179 LP             1 <1>                0.0000
     51 ****       -35.4477   1.6670   9.2015 LP             1 <1>                0.0000
     52 ****       -35.6548   2.5597   7.7317 LP             1 <1>                0.0000
     53 ****       -35.3669   4.5150   6.8172 LP             1 <1>                0.0000
     54 ****       -34.1789   3.5874   6.1887 LP             1 <1>                0.0000
     55 ****       -30.8006   7.2464   7.8506 LP             1 <1>                0.0000
     56 ****       -31.8508   8.4884   7.9959 LP             1 <1>                0.0000
     57 ****       -31.7551  11.2276   8.0449 LP             1 <1>                0.0000
     58 ****       -32.1903   9.6543   7.9980 LP             1 <1>                0.0000
@<TRIPOS>BOND
    1    1    3 2     
    2    1    5 1     
    3    1    8 1     
    4    2   21 1     
    5    2   22 1     
    6    2   25 1     
    7    4    5 1     
    8    4    6 1     
    9    4   26 1     
   10    4   27 1     
   11    6   28 1     
   12    6   29 1     
   13    6   30 1     
   14    7    8 ar    
   15    7   14 ar    
   16    8   10 ar    
   17    9   18 1     
   18    9   19 1     
   19   10   12 1     
   20   10   13 ar    
   21   11   20 1     
   22   11   31 1     
   23   12   32 1     
   24   12   33 1     
   25   12   34 1     
   26   13   14 ar    
   27   13   18 ar    
   28   14   15 ar    
   29   15   16 ar    
   30   15   35 1     
   31   16   17 ar    
   32   16   36 1     
   33   17   18 ar    
   34   17   37 1     
   35   19   20 1     
   36   19   38 1     
   37   19   39 1     
   38   20   21 1     
   39   20   40 1     
   40   21   41 1     
   41   21   42 1     
   42   22   23 1     
   43   22   24 1     
   44   22   43 1     
   45   23   44 1     
   46   23   45 1     
   47   23   46 1     
   48   24   47 1     
   49   24   48 1     
   50   24   49 1     
   51    2   50 1     
   52    3   51 1     
   53    3   52 1     
   54    7   53 1     
   55    7   54 1     
   56    9   55 1     
   57    9   56 1     
   58   11   57 1     
   59   11   58 1     
@<TRIPOS>SUBSTRUCTURE
      1 ****           1
@<TRIPOS>SET
LONE_PAIRS      STATIC     ATOMS    <user>   **** ""
9 50 51 52 53 54 55 56 57 58
DONOR_HYDROGENS      STATIC     ATOMS    <user>   **** ""
2 25 31
ATOM$BLUE        STATIC     ATOMS    COLORGROUP SYSTEM
9 50 51 52 53 54 55 56 57 58
ATOM$RED        STATIC     ATOMS    COLORGROUP SYSTEM
2 25 31
@<TRIPOS>COMMENT
> <Gold.Version>
5.5

> <Gold.Id.Protein>
unknown|dok_beta2|pdb

> <Gold.Protein.RotatedTorsions>
[ 4175 4166 4165 4163 ] final -158.13 input -179.98 | X-H torsion
[ 1294 1290 1288 1285 ] final  -75.87 input -179.99 | X-H torsion
[ 4033 4024 4023 4021 ] final  100.32 input  179.98 | X-H torsion
[ 1412 1408 1406 1403 ] final   99.76 input -179.99 | X-H torsion
[ 2830 2825 2824 2821 ] final -175.98 input -179.98 | X-H torsion
[ 2723 2714 2713 2711 ] final  -70.95 input -179.98 | X-H torsion
[ 2773 2768 2767 2764 ] final   26.89 input  180.00 | X-H torsion

> <Gold.Protein.ActiveResidues>
 TRP109  THR110  ASP113  VAL114  VAL117  THR118  PHE193  TYR199  SER203  SER207 
 PHE208  TRP286  PHE289  PHE290  ASN293  TYR308  ASN312  TYR316 

> <Gold.Protein.RotatedAtoms>
  -34.4542    4.4834    2.6550 H   0  0  0  0  0  0  0  0  0  0  0  0  # atno 1294 bound_to 1290
  -28.2355   14.5824    2.1815 H   0  0  0  0  0  0  0  0  0  0  0  0  # atno 1412 bound_to 1408
  -25.9781    8.4294    2.1778 H   0  0  0  0  0  0  0  0  0  0  0  0  # atno 2723 bound_to 2714
  -23.6687   10.8333    2.7087 H   0  0  0  0  0  0  0  0  0  0  0  0  # atno 2773 bound_to 2768
  -24.9435   12.9912    2.7795 H   0  0  0  0  0  0  0  0  0  0  0  0  # atno 2830 bound_to 2825
  -29.0400    6.9778   11.1412 H   0  0  0  0  0  0  0  0  0  0  0  0  # atno 4033 bound_to 4024
  -36.1115    9.1903    7.6818 H   0  0  0  0  0  0  0  0  0  0  0  0  # atno 4175 bound_to 4166
  -37.6122    8.9389    7.1862 LP  0  0  0  0  0  0  0  0  0  0  0  0  # atno 4597 bound_to 4166
  -37.0616    8.2482    8.5597 LP  0  0  0  0  0  0  0  0  0  0  0  0  # atno 4598 bound_to 4166
  -34.0899    3.5310    1.4215 LP  0  0  0  0  0  0  0  0  0  0  0  0  # atno 4603 bound_to 1290
  -35.4437    4.4439    1.3977 LP  0  0  0  0  0  0  0  0  0  0  0  0  # atno 4604 bound_to 1290
  -28.9346    5.4713   10.6107 LP  0  0  0  0  0  0  0  0  0  0  0  0  # atno 4607 bound_to 4024
  -27.7248    6.1328   11.4856 LP  0  0  0  0  0  0  0  0  0  0  0  0  # atno 4608 bound_to 4024
  -27.4322   15.1809    3.4296 LP  0  0  0  0  0  0  0  0  0  0  0  0  # atno 4611 bound_to 1408
  -26.6594   14.8198    2.0371 LP  0  0  0  0  0  0  0  0  0  0  0  0  # atno 4612 bound_to 1408
  -23.3570   13.1560    2.9065 LP  0  0  0  0  0  0  0  0  0  0  0  0  # atno 4613 bound_to 2825
  -24.2283   14.1735    1.9727 LP  0  0  0  0  0  0  0  0  0  0  0  0  # atno 4614 bound_to 2825

> <Gold.Score>
     Score     S(PLP)   S(hbond)     S(cho)   S(metal)  DE(clash)   DE(tors)     intcor
     71.42     -70.49       0.99       0.00       0.00       0.00       1.24       0.45

> <Gold.PLP.Fitness>
71.4229

> <Gold.PLP.PLP>
-70.4907

> <Gold.PLP.part.hbond>
-1.0000

> <Gold.PLP.part.metal>
0.0000

> <Gold.PLP.part.buried>
-9.9152

> <Gold.PLP.part.nonpolar>
-62.3463

> <Gold.PLP.part.repulsive>
0.2317

> <Gold.PLP.ligand.clash>
0.0000

> <Gold.PLP.ligand.torsion>
1.2436

> <Gold.PLP.Chemscore.Hbond>
0.9913

> <Gold.PLP.Chemscore.CHOScore>
0.0000

> <Gold.PLP.Chemscore.Metal>
0.0000

> <Gold.Chemscore.Hbonds>
donor molecule, donor type, donor heavy atom, donor atom, acceptor molecule, acceptor atom, score
      L1  H    11    31       P1  1334  0.99

> <Gold.PLP.Chemscore.Internal.Correction>
0.4457

