#       Name:                C:\Users\porto\OneDrive\projekt\beta2\ligandy\L_4lde.pdb L_4lde.pdb 1
#       Creating user name   student
#       Creation time:       Mon Apr 08 16:04:44 2019


#       File generated by GOLD software.
#

@<TRIPOS>MOLECULE
C:\Users\porto\OneDrive\projekt\beta2\ligandy\L_4lde.pdb L_4lde.pdb 1|4lde|mol2|1|dock8
    62    64     1
SMALL
GASTEIGER


@<TRIPOS>ATOM
      1 CAA        -36.1165   5.6057  10.8172 C.3            1 <1>               -0.0395
      2 CAB        -33.6031   6.0339   6.0589 C.3            1 <1>               -0.0467
      3 CAC        -32.5427   5.9498   8.3161 C.3            1 <1>               -0.0467
      4 CAG        -35.1933   2.1329   9.6874 C.ar           1 <1>               -0.0615
      5 CAH        -34.7097   2.3556   8.4032 C.ar           1 <1>               -0.0615
      6 CAI        -35.6454   3.1927  10.4622 C.ar           1 <1>               -0.0586
      7 CAJ        -34.6707   3.6424   7.8984 C.ar           1 <1>               -0.0583
      8 CAK        -29.9049  12.3935   6.2860 C.ar           1 <1>               -0.0178
      9 CAL        -30.9671  11.7017   6.8620 C.ar           1 <1>               -0.0490
     10 CAM        -28.0358   8.0842   7.7856 C.3            1 <1>                0.1656
     11 CAN        -32.4240   8.5320   6.9298 C.3            1 <1>                0.0267
     12 CAO        -35.0793   6.1007   8.0768 C.3            1 <1>               -0.0096
     13 CAS        -26.9728   8.7659   6.9451 C.2            1 <1>                0.2550
     14 CAT        -35.6144   4.4814   9.9508 C.ar           1 <1>               -0.0472
     15 CAU        -28.6892  11.7556   6.0703 C.ar           1 <1>                0.1416
     16 CAV        -35.1396   4.7073   8.6635 C.ar           1 <1>               -0.0427
     17 CAW        -30.8210  10.3672   7.2243 C.ar           1 <1>                0.0258
     18 CAX        -28.5360  10.4334   6.4362 C.ar           1 <1>                0.1180
     19 CAY        -29.5903   9.7416   7.0096 C.ar           1 <1>                0.1515
     20 CAZ        -31.9699   9.6552   7.8462 C.3            1 <1>                0.0960
     21 NAP        -33.6226   7.9370   7.4817 N.3            1 <1>               -0.3080
     22 NAQ        -27.3552   9.8099   6.2163 N.am           1 <1>               -0.2769
     23 OAD        -25.8199   8.3624   6.9481 O.2            1 <1>               -0.2717
     24 OAE        -27.6431  12.4246   5.5067 O.3            1 <1>               -0.5048
     25 OAF        -33.0945  10.5255   8.0533 O.3            1 <1>               -0.3858
     26 OAR        -29.3487   8.4334   7.3330 O.3            1 <1>               -0.4804
     27 CBA        -33.7154   6.4925   7.5074 C.3            1 <1>                0.0176
     28 HAA1       -36.0268   6.5482  10.2780 H              1 <1>                0.0278
     29 HAA2       -37.1617   5.4305  11.0714 H              1 <1>                0.0278
     30 HAA3       -35.5242   5.6531  11.7310 H              1 <1>                0.0278
     31 HAB1       -34.4445   6.4251   5.4867 H              1 <1>                0.0247
     32 HAB2       -32.6708   6.4029   5.6312 H              1 <1>                0.0247
     33 HAB3       -33.6139   4.9445   6.0201 H              1 <1>                0.0247
     34 HAC1       -32.6297   6.2817   9.3506 H              1 <1>                0.0247
     35 HAC2       -32.5509   4.8605   8.2822 H              1 <1>                0.0247
     36 HAC3       -31.6078   6.3192   7.8943 H              1 <1>                0.0247
     37 HAG        -35.2194   1.1304  10.0887 H              1 <1>                0.0618
     38 HAH        -34.3657   1.5257   7.8039 H              1 <1>                0.0618
     39 HAI        -36.0196   3.0119  11.4590 H              1 <1>                0.0620
     40 HAJ        -34.2766   3.8222   6.9093 H              1 <1>                0.0620
     41 HAK        -30.0238  13.4297   6.0050 H              1 <1>                0.0655
     42 HAL        -31.9099  12.2016   7.0288 H              1 <1>                0.0623
     43 HAM1       -27.9202   8.3817   8.8277 H              1 <1>                0.0795
     44 HAM2       -27.9076   7.0032   7.7270 H              1 <1>                0.0795
     45 HAN1       -31.6406   7.7766   6.8651 H              1 <1>                0.0453
     46 HAN2       -32.6411   8.9360   5.9404 H              1 <1>                0.0453
     47 HAO1       -35.3746   6.8249   8.8361 H              1 <1>                0.0331
     48 HAO2       -35.8362   6.1984   7.2991 H              1 <1>                0.0331
     49 HAZ        -31.6582   9.2355   8.8029 H              1 <1>                0.0657
     50 HNAP       -33.7282   8.2238   8.4445 H              1 <1>                0.1225
     51 HNAQ       -26.7594  10.1555   5.4772 H              1 <1>                0.1551
     52 HOAE       -27.9003  13.3328   5.3330 H              1 <1>                0.2922
     53 HOAF       -33.6456  10.5300   7.2665 H              1 <1>                0.2103
     54 ****       -34.3279   8.2610   6.8511 LP             1 <1>                0.0000
     55 ****       -25.5675   7.5740   7.5090 LP             1 <1>                0.0000
     56 ****       -25.1284   8.8206   6.3895 LP             1 <1>                0.0000
     57 ****       -27.3874  11.9806   4.6479 LP             1 <1>                0.0000
     58 ****       -26.8637  12.4129   6.1330 LP             1 <1>                0.0000
     59 ****       -32.7688  11.4529   8.2372 LP             1 <1>                0.0000
     60 ****       -33.6292  10.1993   8.8328 LP             1 <1>                0.0000
     61 ****       -29.9897   8.1832   8.0586 LP             1 <1>                0.0000
     62 ****       -29.5376   7.8858   6.5178 LP             1 <1>                0.0000
@<TRIPOS>BOND
    1    1   14 1     
    2    1   28 1     
    3    1   29 1     
    4    1   30 1     
    5    2   27 1     
    6    2   31 1     
    7    2   32 1     
    8    2   33 1     
    9    3   27 1     
   10    3   34 1     
   11    3   35 1     
   12    3   36 1     
   13    4    5 ar    
   14    4    6 ar    
   15    4   37 1     
   16    5    7 ar    
   17    5   38 1     
   18    6   14 ar    
   19    6   39 1     
   20    7   16 ar    
   21    7   40 1     
   22    8    9 ar    
   23    8   15 ar    
   24    8   41 1     
   25    9   17 ar    
   26    9   42 1     
   27   10   13 1     
   28   10   26 1     
   29   10   43 1     
   30   10   44 1     
   31   11   20 1     
   32   11   21 1     
   33   11   45 1     
   34   11   46 1     
   35   12   16 1     
   36   12   27 1     
   37   12   47 1     
   38   12   48 1     
   39   13   22 am    
   40   13   23 2     
   41   14   16 ar    
   42   15   18 ar    
   43   15   24 1     
   44   17   19 ar    
   45   17   20 1     
   46   18   19 ar    
   47   18   22 1     
   48   19   26 1     
   49   20   25 1     
   50   20   49 1     
   51   21   27 1     
   52   21   50 1     
   53   22   51 1     
   54   24   52 1     
   55   25   53 1     
   56   21   54 1     
   57   23   55 1     
   58   23   56 1     
   59   24   57 1     
   60   24   58 1     
   61   25   59 1     
   62   25   60 1     
   63   26   61 1     
   64   26   62 1     
@<TRIPOS>SUBSTRUCTURE
      1 ****           1
@<TRIPOS>SET
LONE_PAIRS      STATIC     ATOMS    <user>   **** ""
9 54 55 56 57 58 59 60 61 62
DONOR_HYDROGENS      STATIC     ATOMS    <user>   **** ""
4 50 51 52 53
ATOM$BLUE        STATIC     ATOMS    COLORGROUP SYSTEM
9 54 55 56 57 58 59 60 61 62
ATOM$RED        STATIC     ATOMS    COLORGROUP SYSTEM
4 50 51 52 53
@<TRIPOS>COMMENT
> <Gold.Version>
5.5

> <Gold.Id.Protein>
unknown|dok_beta2|pdb

> <Gold.Protein.RotatedTorsions>
[ 4175 4166 4165 4163 ] final -174.29 input -179.98 | X-H torsion
[ 1294 1290 1288 1285 ] final -106.96 input -179.99 | X-H torsion
[ 4033 4024 4023 4021 ] final -165.19 input  179.98 | X-H torsion
[ 1412 1408 1406 1403 ] final   96.97 input -179.99 | X-H torsion
[ 2830 2825 2824 2821 ] final -164.37 input -179.98 | X-H torsion
[ 2723 2714 2713 2711 ] final   -2.67 input -179.98 | X-H torsion
[ 2773 2768 2767 2764 ] final -101.58 input  180.00 | X-H torsion

> <Gold.Protein.ActiveResidues>
 TRP109  THR110  ASP113  VAL114  VAL117  THR118  PHE193  TYR199  SER203  SER207 
 PHE208  TRP286  PHE289  PHE290  ASN293  TYR308  ASN312  TYR316 

> <Gold.Protein.RotatedAtoms>
  -34.0958    4.1763    2.5437 H   0  0  0  0  0  0  0  0  0  0  0  0  # atno 1294 bound_to 1290
  -28.2554   14.5925    2.2193 H   0  0  0  0  0  0  0  0  0  0  0  0  # atno 1412 bound_to 1408
  -26.1220    7.9978    1.2696 H   0  0  0  0  0  0  0  0  0  0  0  0  # atno 2723 bound_to 2714
  -24.5353   10.0873    3.8700 H   0  0  0  0  0  0  0  0  0  0  0  0  # atno 2773 bound_to 2768
  -25.0252   13.1138    2.6709 H   0  0  0  0  0  0  0  0  0  0  0  0  # atno 2830 bound_to 2825
  -27.8718    6.5068   11.5665 H   0  0  0  0  0  0  0  0  0  0  0  0  # atno 4033 bound_to 4024
  -36.2283    9.2816    7.4751 H   0  0  0  0  0  0  0  0  0  0  0  0  # atno 4175 bound_to 4166
  -37.7434    8.7808    7.3538 LP  0  0  0  0  0  0  0  0  0  0  0  0  # atno 4597 bound_to 4166
  -36.8086    8.3112    8.6077 LP  0  0  0  0  0  0  0  0  0  0  0  0  # atno 4598 bound_to 4166
  -34.4677    3.6076    1.0947 LP  0  0  0  0  0  0  0  0  0  0  0  0  # atno 4603 bound_to 1290
  -35.4395    4.6874    1.8405 LP  0  0  0  0  0  0  0  0  0  0  0  0  # atno 4604 bound_to 1290
  -29.3074    6.7709   10.9095 LP  0  0  0  0  0  0  0  0  0  0  0  0  # atno 4607 bound_to 4024
  -28.5689    5.3238   10.7439 LP  0  0  0  0  0  0  0  0  0  0  0  0  # atno 4608 bound_to 4024
  -27.3872   15.1878    3.4248 LP  0  0  0  0  0  0  0  0  0  0  0  0  # atno 4611 bound_to 1408
  -26.6837   14.8025    2.0024 LP  0  0  0  0  0  0  0  0  0  0  0  0  # atno 4612 bound_to 1408
  -23.4606   13.0211    2.9929 LP  0  0  0  0  0  0  0  0  0  0  0  0  # atno 4613 bound_to 2825
  -24.0396   14.1805    1.9994 LP  0  0  0  0  0  0  0  0  0  0  0  0  # atno 4614 bound_to 2825

> <Gold.Score>
     Score     S(PLP)   S(hbond)     S(cho)   S(metal)  DE(clash)   DE(tors)     intcor
     78.90     -74.31       2.94       0.00       0.00       1.55       1.70       0.71

> <Gold.PLP.Fitness>
78.8970

> <Gold.PLP.PLP>
-74.3079

> <Gold.PLP.part.hbond>
-4.1089

> <Gold.PLP.part.metal>
0.0000

> <Gold.PLP.part.buried>
-10.2865

> <Gold.PLP.part.nonpolar>
-61.2913

> <Gold.PLP.part.repulsive>
0.0512

> <Gold.PLP.ligand.clash>
1.5478

> <Gold.PLP.ligand.torsion>
1.7030

> <Gold.PLP.Chemscore.Hbond>
2.9440

> <Gold.PLP.Chemscore.CHOScore>
0.0000

> <Gold.PLP.Chemscore.Metal>
0.0000

> <Gold.Chemscore.Hbonds>
donor molecule, donor type, donor heavy atom, donor atom, acceptor molecule, acceptor atom, score
      L1  H    21    50       P1  4098  1.00
      L1  H    25    53       P1  1334  1.00
      P1  H  4097  4104       L1    25  0.94

> <Gold.PLP.Chemscore.Internal.Correction>
0.7108

