#       Name:                C:\Users\porto\OneDrive\projekt\beta2\ligandy\L_3d4s.pdb L_3d4s.pdb 1
#       Creating user name   student
#       Creation time:       Mon Apr 01 15:19:34 2019


#       File generated by GOLD software.
#

@<TRIPOS>MOLECULE
C:\Users\porto\OneDrive\projekt\beta2\ligandy\L_3d4s.pdb L_3d4s.pdb 1|3d4s|mol2|1|dock2
    54    55     1
SMALL
GASTEIGER


@<TRIPOS>ATOM
      1 O1         -25.8486   7.3380   7.7826 O.3            1 <1>               -0.3767
      2 C2         -25.0399   7.9894   6.8133 C.3            1 <1>                0.0634
      3 C3         -25.4096   9.4605   6.5510 C.3            1 <1>                0.0372
      4 N4         -26.8160   9.7589   6.6546 N.pl3          1 <1>               -0.3060
      5 C5         -27.6448   8.9232   7.5000 C.3            1 <1>                0.0372
      6 C6         -27.2235   7.4526   7.4674 C.3            1 <1>                0.0634
      7 C7         -27.3537  10.9310   6.1812 C.ar           1 <1>                0.1942
      8 N8         -26.5848  11.8385   5.5563 N.ar           1 <1>               -0.1717
      9 S9         -27.5073  13.1141   5.0947 S.2            1 <1>                0.1206
     10 N10        -28.9585  12.6091   5.6582 N.ar           1 <1>               -0.1530
     11 C11        -28.7948  11.4223   6.2233 C.ar           1 <1>                0.2652
     12 O12        -29.8171  10.7260   6.8219 O.3            1 <1>               -0.4710
     13 C13        -31.1089  11.3866   6.9596 C.3            1 <1>                0.1183
     14 C14        -31.7981  10.4504   7.9634 C.3            1 <1>                0.1016
     15 O15        -33.0471  10.9124   8.3888 O.3            1 <1>               -0.3872
     16 C16        -31.9029   9.0597   7.3641 C.3            1 <1>                0.0256
     17 N17        -33.1586   8.3493   7.4433 N.3            1 <1>               -0.3088
     18 C18        -32.9191   6.9797   6.9227 C.3            1 <1>                0.0108
     19 C19        -31.9500   6.2180   7.8146 C.3            1 <1>               -0.0473
     20 C20        -34.2677   6.2154   6.8943 C.3            1 <1>               -0.0473
     21 C21        -32.3330   7.0679   5.4987 C.3            1 <1>               -0.0473
     22 H21        -25.0818   7.4348   5.8760 H              1 <1>                0.0575
     23 H22        -23.9948   7.9287   7.1156 H              1 <1>                0.0575
     24 H31        -25.0503   9.7517   5.5637 H              1 <1>                0.0487
     25 H32        -24.8539  10.1002   7.2372 H              1 <1>                0.0487
     26 H51        -28.6849   9.0091   7.1857 H              1 <1>                0.0487
     27 H52        -27.6018   9.2897   8.5260 H              1 <1>                0.0487
     28 H61        -27.8110   6.8907   8.1935 H              1 <1>                0.0575
     29 H62        -27.4034   7.0455   6.4724 H              1 <1>                0.0575
     30 H131       -31.6367  11.3387   6.0067 H              1 <1>                0.0724
     31 H132       -30.9629  12.3624   7.4237 H              1 <1>                0.0724
     32 H14        -31.1565  10.3815   8.8424 H              1 <1>                0.0640
     33 HO15       -33.5902  11.1179   7.6244 H              1 <1>                0.2100
     34 H161       -31.1142   8.4335   7.7800 H              1 <1>                0.0451
     35 H162       -31.5801   9.0961   6.3238 H              1 <1>                0.0451
     36 HN17       -33.4672   8.3153   8.4039 H              1 <1>                0.1225
     37 H191       -31.7921   5.2179   7.4103 H              1 <1>                0.0247
     38 H192       -30.9981   6.7484   7.8533 H              1 <1>                0.0247
     39 H193       -32.3639   6.1414   8.8201 H              1 <1>                0.0247
     40 H201       -34.1063   5.2067   6.5133 H              1 <1>                0.0247
     41 H202       -34.6766   6.1617   7.9031 H              1 <1>                0.0247
     42 H203       -34.9698   6.7402   6.2460 H              1 <1>                0.0247
     43 H211       -32.1563   6.0633   5.1153 H              1 <1>                0.0247
     44 H212       -33.0364   7.5872   4.8472 H              1 <1>                0.0247
     45 H213       -31.3913   7.6160   5.5263 H              1 <1>                0.0247
     46 ****       -25.6838   7.7541   8.6768 LP             1 <1>                0.0000
     47 ****       -25.6017   6.3695   7.8150 LP             1 <1>                0.0000
     48 ****       -25.6015  11.7500   5.3971 LP             1 <1>                0.0000
     49 ****       -29.8209  13.1104   5.5879 LP             1 <1>                0.0000
     50 ****       -29.5102  10.4795   7.7412 LP             1 <1>                0.0000
     51 ****       -29.9643   9.8949   6.2856 LP             1 <1>                0.0000
     52 ****       -32.9266  11.7360   8.9430 LP             1 <1>                0.0000
     53 ****       -33.4954  10.2053   8.9356 LP             1 <1>                0.0000
     54 ****       -33.8695   8.8050   6.9076 LP             1 <1>                0.0000
@<TRIPOS>BOND
    1    1    2 1     
    2    1    6 1     
    3    2    3 1     
    4    2   22 1     
    5    2   23 1     
    6    3    4 1     
    7    3   24 1     
    8    3   25 1     
    9    4    7 1     
   10    4    5 1     
   11    5    6 1     
   12    5   26 1     
   13    5   27 1     
   14    6   28 1     
   15    6   29 1     
   16    7    8 ar    
   17    7   11 ar    
   18    8    9 ar    
   19    9   10 ar    
   20   10   11 ar    
   21   11   12 1     
   22   12   13 1     
   23   13   14 1     
   24   13   30 1     
   25   13   31 1     
   26   14   15 1     
   27   14   16 1     
   28   14   32 1     
   29   15   33 1     
   30   16   17 1     
   31   16   34 1     
   32   16   35 1     
   33   17   18 1     
   34   17   36 1     
   35   18   19 1     
   36   18   20 1     
   37   18   21 1     
   38   19   37 1     
   39   19   38 1     
   40   19   39 1     
   41   20   40 1     
   42   20   41 1     
   43   20   42 1     
   44   21   43 1     
   45   21   44 1     
   46   21   45 1     
   47    1   46 1     
   48    1   47 1     
   49    8   48 1     
   50   10   49 1     
   51   12   50 1     
   52   12   51 1     
   53   15   52 1     
   54   15   53 1     
   55   17   54 1     
@<TRIPOS>SUBSTRUCTURE
      1 ****           1
@<TRIPOS>SET
LONE_PAIRS      STATIC     ATOMS    <user>   **** ""
9 46 47 48 49 50 51 52 53 54
DONOR_HYDROGENS      STATIC     ATOMS    <user>   **** ""
2 33 36
ATOM$BLUE        STATIC     ATOMS    COLORGROUP SYSTEM
9 46 47 48 49 50 51 52 53 54
ATOM$RED        STATIC     ATOMS    COLORGROUP SYSTEM
2 33 36
@<TRIPOS>COMMENT
> <Gold.Version>
5.5

> <Gold.Id.Protein>
unknown|dok_beta2|pdb

> <Gold.Protein.RotatedTorsions>
[ 4175 4166 4165 4163 ] final  -37.30 input -179.98 | X-H torsion
[ 1294 1290 1288 1285 ] final  -16.20 input -179.99 | X-H torsion
[ 4033 4024 4023 4021 ] final -154.88 input  179.98 | X-H torsion
[ 1412 1408 1406 1403 ] final  -49.77 input -179.99 | X-H torsion
[ 2830 2825 2824 2821 ] final    8.33 input -179.98 | X-H torsion
[ 2723 2714 2713 2711 ] final  145.97 input -179.98 | X-H torsion
[ 2773 2768 2767 2764 ] final -108.17 input  180.00 | X-H torsion

> <Gold.Protein.ActiveResidues>
 TRP109  THR110  ASP113  VAL114  VAL117  THR118  PHE193  TYR199  SER203  SER207 
 PHE208  TRP286  PHE289  PHE290  ASN293  TYR308  ASN312  TYR316 

> <Gold.Protein.RotatedAtoms>
  -35.2013    4.7617    2.2367 H   0  0  0  0  0  0  0  0  0  0  0  0  # atno 1294 bound_to 1290
  -26.9992   15.2100    3.2430 H   0  0  0  0  0  0  0  0  0  0  0  0  # atno 1412 bound_to 1408
  -27.0174    7.0924    2.4589 H   0  0  0  0  0  0  0  0  0  0  0  0  # atno 2723 bound_to 2714
  -24.5809   10.0003    3.8358 H   0  0  0  0  0  0  0  0  0  0  0  0  # atno 2773 bound_to 2768
  -23.3986   13.8433    2.3855 H   0  0  0  0  0  0  0  0  0  0  0  0  # atno 2830 bound_to 2825
  -27.8099    6.3584   11.5423 H   0  0  0  0  0  0  0  0  0  0  0  0  # atno 4033 bound_to 4024
  -37.0716    8.2782    8.5317 H   0  0  0  0  0  0  0  0  0  0  0  0  # atno 4175 bound_to 4166
  -36.0692    9.1909    7.6813 LP  0  0  0  0  0  0  0  0  0  0  0  0  # atno 4597 bound_to 4166
  -37.6037    8.9470    7.1787 LP  0  0  0  0  0  0  0  0  0  0  0  0  # atno 4598 bound_to 4166
  -33.8790    3.8610    2.2739 LP  0  0  0  0  0  0  0  0  0  0  0  0  # atno 4603 bound_to 1290
  -34.8761    3.8239    0.9813 LP  0  0  0  0  0  0  0  0  0  0  0  0  # atno 4604 bound_to 1290
  -29.2198    6.8857   10.9981 LP  0  0  0  0  0  0  0  0  0  0  0  0  # atno 4607 bound_to 4024
  -28.7209    5.3636   10.6804 LP  0  0  0  0  0  0  0  0  0  0  0  0  # atno 4608 bound_to 4024
  -26.9998   14.6471    1.7449 LP  0  0  0  0  0  0  0  0  0  0  0  0  # atno 4611 bound_to 1408
  -28.3802   14.6996    2.6156 LP  0  0  0  0  0  0  0  0  0  0  0  0  # atno 4612 bound_to 1408
  -24.9811   13.7583    2.1646 LP  0  0  0  0  0  0  0  0  0  0  0  0  # atno 4613 bound_to 2825
  -24.2148   12.6828    3.1253 LP  0  0  0  0  0  0  0  0  0  0  0  0  # atno 4614 bound_to 2825

> <Gold.Score>
     Score     S(PLP)   S(hbond)     S(cho)   S(metal)  DE(clash)   DE(tors)     intcor
     74.53     -67.42       2.88       0.00       0.00       0.00       0.85       0.18

> <Gold.PLP.Fitness>
74.5333

> <Gold.PLP.PLP>
-67.4186

> <Gold.PLP.part.hbond>
-4.6525

> <Gold.PLP.part.metal>
0.0000

> <Gold.PLP.part.buried>
-10.0082

> <Gold.PLP.part.nonpolar>
-54.4712

> <Gold.PLP.part.repulsive>
0.2092

> <Gold.PLP.ligand.clash>
0.0000

> <Gold.PLP.ligand.torsion>
0.8533

> <Gold.PLP.Chemscore.Hbond>
2.8800

> <Gold.PLP.Chemscore.CHOScore>
0.0000

> <Gold.PLP.Chemscore.Metal>
0.0000

> <Gold.Chemscore.Hbonds>
donor molecule, donor type, donor heavy atom, donor atom, acceptor molecule, acceptor atom, score
      L1  H    15    33       P1  1334  1.00
      L1  H    17    36       P1  4098  1.00
      P1  H  4097  4104       L1    15  0.88

> <Gold.PLP.Chemscore.Internal.Correction>
0.1813

