#       Name:                C:\Users\porto\OneDrive\projekt\beta1\ligandy\L_4bvn.pdb L_4bvn.pdb 1
#       Creating user name   student
#       Creation time:       Mon Apr 08 16:16:55 2019


#       File generated by GOLD software.
#

@<TRIPOS>MOLECULE
C:\Users\porto\OneDrive\projekt\beta1\ligandy\L_4bvn.pdb L_4bvn.pdb 1|4bvn|mol2|1|dock2
    48    49     1
SMALL
GASTEIGER


@<TRIPOS>ATOM
      1 C1         -23.3277   4.7414  12.6512 C.2            1 <1>                0.1822
      2 N1         -23.6110   3.7678  13.4875 N.1            1 <1>               -0.3633
      3 O1         -23.3104   7.7905  15.5011 O.3            1 <1>               -0.4884
      4 C2         -23.2520   5.9096  13.3287 C.3            1 <1>                0.0496
      5 N2         -24.1495   9.8085  18.9571 N.3            1 <1>               -0.3088
      6 O2         -21.2775   8.5731  16.9102 O.3            1 <1>               -0.3872
      7 C3         -23.5157   5.6460  14.6090 C.ar           1 <1>                0.0656
      8 N3         -22.8654   4.4432   9.9290 N.1            1 <1>               -0.1885
      9 C4         -23.5844   6.4439  15.6936 C.ar           1 <1>                0.1336
     10 C5         -23.9342   5.9008  16.8983 C.ar           1 <1>               -0.0184
     11 C6         -24.1974   4.5346  17.0291 C.ar           1 <1>               -0.0489
     12 C7         -24.1387   3.7518  15.8653 C.ar           1 <1>                0.0031
     13 C8         -23.7947   4.3092  14.6917 C.ar           1 <1>               -0.0070
     14 C9         -23.6685   8.6509  16.4958 C.3            1 <1>                0.1166
     15 C10        -22.5825   8.5833  17.5681 C.3            1 <1>                0.1015
     16 C11        -22.7870   9.8007  18.4161 C.3            1 <1>                0.0256
     17 C12        -24.2711  10.6211  20.2431 C.3            1 <1>                0.0108
     18 C13        -23.7679  12.0912  20.0662 C.3            1 <1>               -0.0473
     19 C14        -23.4051   9.9718  21.3661 C.3            1 <1>               -0.0473
     20 C15        -25.7016  10.7079  20.8027 C.3            1 <1>               -0.0473
     21 C16        -23.0589   4.5887  11.1990 C.1            1 <1>                0.1289
     22 H21        -23.9973   6.6030  12.9405 H              1 <1>                0.0403
     23 H22        -22.2441   6.3148  13.2421 H              1 <1>                0.0403
     24 HN2        -24.4151   8.8506  19.1365 H              1 <1>                0.1225
     25 HO2        -21.3884   8.3568  15.9814 H              1 <1>                0.2100
     26 H5         -24.0116   6.5306  17.7724 H              1 <1>                0.0654
     27 H6         -24.4344   4.1201  17.9985 H              1 <1>                0.0625
     28 H7         -24.3706   2.6982  15.9110 H              1 <1>                0.0725
     29 H91        -24.6204   8.3353  16.9230 H              1 <1>                0.0723
     30 H92        -23.7216   9.6643  16.0973 H              1 <1>                0.0723
     31 H10        -22.7057   7.6825  18.1698 H              1 <1>                0.0640
     32 H111       -22.0710   9.7957  19.2372 H              1 <1>                0.0451
     33 H112       -22.6313  10.6944  17.8119 H              1 <1>                0.0451
     34 H131       -23.8753  12.6286  21.0087 H              1 <1>                0.0247
     35 H132       -22.7190  12.0837  19.7701 H              1 <1>                0.0247
     36 H133       -24.3585  12.5877  19.2968 H              1 <1>                0.0247
     37 H141       -23.4972  10.5577  22.2812 H              1 <1>                0.0247
     38 H142       -23.7513   8.9551  21.5502 H              1 <1>                0.0247
     39 H143       -22.3609   9.9487  21.0529 H              1 <1>                0.0247
     40 H151       -25.6999  11.3027  21.7164 H              1 <1>                0.0247
     41 H152       -26.3527  11.1774  20.0652 H              1 <1>                0.0247
     42 H153       -26.0677   9.7051  21.0232 H              1 <1>                0.0247
     43 ****       -23.7864   8.0778  14.6699 LP             1 <1>                0.0000
     44 ****       -22.3234   7.8799  15.3678 LP             1 <1>                0.0000
     45 ****       -24.7527  10.2415  18.2873 LP             1 <1>                0.0000
     46 ****       -20.6910   7.8891  17.3439 LP             1 <1>                0.0000
     47 ****       -20.8551   9.4757  16.9940 LP             1 <1>                0.0000
     48 ****       -22.7158   4.3306   8.9467 LP             1 <1>                0.0000
@<TRIPOS>BOND
    1    1    4 1     
    2    1   21 1     
    3    1    2 2     
    4    2   13 2     
    5    3    9 1     
    6    3   14 1     
    7    4    7 1     
    8    4   22 1     
    9    4   23 1     
   10    5   17 1     
   11    5   16 1     
   12    5   24 1     
   13    6   15 1     
   14    6   25 1     
   15    7    9 ar    
   16    7   13 ar    
   17    8   21 3     
   18    9   10 ar    
   19   10   11 ar    
   20   10   26 1     
   21   11   12 ar    
   22   11   27 1     
   23   12   13 ar    
   24   12   28 1     
   25   14   15 1     
   26   14   29 1     
   27   14   30 1     
   28   15   16 1     
   29   15   31 1     
   30   16   32 1     
   31   16   33 1     
   32   17   18 1     
   33   17   19 1     
   34   17   20 1     
   35   18   34 1     
   36   18   35 1     
   37   18   36 1     
   38   19   37 1     
   39   19   38 1     
   40   19   39 1     
   41   20   40 1     
   42   20   41 1     
   43   20   42 1     
   44    3   43 1     
   45    3   44 1     
   46    5   45 1     
   47    6   46 1     
   48    6   47 1     
   49    8   48 1     
@<TRIPOS>SUBSTRUCTURE
      1 ****           1
@<TRIPOS>SET
LONE_PAIRS      STATIC     ATOMS    <user>   **** ""
6 43 44 45 46 47 48
DONOR_HYDROGENS      STATIC     ATOMS    <user>   **** ""
2 24 25
ATOM$BLUE        STATIC     ATOMS    COLORGROUP SYSTEM
6 43 44 45 46 47 48
ATOM$RED        STATIC     ATOMS    COLORGROUP SYSTEM
2 24 25
@<TRIPOS>COMMENT
> <Gold.Version>
5.5

> <Gold.Id.Protein>
unknown|bialko_beta1|pdb

> <Gold.Protein.ActiveResidues>
 ALA86   ASP87   VAL90   VAL94   VAL95   GLY98   ALA99   LEU101  VAL102  CYS114 
 GLU115  TRP117  THR118  SER119  LEU120  ASP121  VAL122  CYS124  VAL125  THR126 
 SER128  SER173  PHE174  ILE177  CYS199  ASP200  PHE201  TYR207  SER215  PHE299 
 TRP303  PHE306  PHE307  ASN310  PHE325  VAL326  ASN329  TRP330  GLY332  TYR333 
 SER336 

> <Gold.Score>
     Score     S(PLP)   S(hbond)     S(cho)   S(metal)  DE(clash)   DE(tors)     intcor
     60.52     -58.59       1.00       0.00       0.00       0.00       0.56       0.04

> <Gold.PLP.Fitness>
60.5155

> <Gold.PLP.PLP>
-58.5900

> <Gold.PLP.part.hbond>
-1.0000

> <Gold.PLP.part.metal>
0.0000

> <Gold.PLP.part.buried>
-7.1375

> <Gold.PLP.part.nonpolar>
-50.8033

> <Gold.PLP.part.repulsive>
0.3536

> <Gold.PLP.ligand.clash>
0.0000

> <Gold.PLP.ligand.torsion>
0.5584

> <Gold.PLP.Chemscore.Hbond>
1.0000

> <Gold.PLP.Chemscore.CHOScore>
0.0000

> <Gold.PLP.Chemscore.Metal>
0.0000

> <Gold.Chemscore.Hbonds>
donor molecule, donor type, donor heavy atom, donor atom, acceptor molecule, acceptor atom, score
      L1  H     5    24       P1  2066  1.00

> <Gold.PLP.Chemscore.Internal.Correction>
0.0424

