#       Name:                C:\Users\porto\OneDrive\projekt\beta2\ligandy\L_4ldl.pdb L_4ldl.pdb 1
#       Creating user name   student
#       Creation time:       Mon Apr 08 16:09:47 2019


#       File generated by GOLD software.
#

@<TRIPOS>MOLECULE
C:\Users\porto\OneDrive\projekt\beta2\ligandy\L_4ldl.pdb L_4ldl.pdb 1|4ldl|mol2|1|dock33
    55    56     1
SMALL
GASTEIGER


@<TRIPOS>ATOM
      1 CAA        -35.3712   6.1408   8.2193 C.3            1 <1>               -0.0467
      2 CAB        -34.0352   6.5567   7.6119 C.3            1 <1>                0.0176
      3 CAC        -33.9199   6.0407   6.1828 C.3            1 <1>               -0.0467
      4 CAD        -32.8571   6.0847   8.4674 C.3            1 <1>               -0.0098
      5 CAE        -33.1411   4.8133   9.2439 C.ar           1 <1>               -0.0454
      6 CAF        -33.3718   3.6062   8.5881 C.ar           1 <1>               -0.0551
      7 CAG        -33.6385   2.4524   9.3143 C.ar           1 <1>               -0.0199
      8 CAH        -33.6899   2.5012  10.7039 C.ar           1 <1>                0.1169
      9 CAJ        -33.4711   3.7056  11.3619 C.ar           1 <1>               -0.0199
     10 CAK        -33.2050   4.8587  10.6337 C.ar           1 <1>               -0.0551
     11 CAM        -32.8220   8.6631   7.0679 C.3            1 <1>                0.0266
     12 CAN        -32.3891   9.7735   8.0173 C.3            1 <1>                0.0927
     13 CAP        -31.2169  10.4586   7.4261 C.ar           1 <1>               -0.0143
     14 CAQ        -31.2499  11.8197   7.1471 C.ar           1 <1>               -0.0524
     15 CAR        -30.1342  12.4383   6.5923 C.ar           1 <1>               -0.0162
     16 CAS        -28.9864  11.7004   6.3236 C.ar           1 <1>                0.1582
     17 CAU        -28.9531  10.3471   6.6080 C.ar           1 <1>                0.1586
     18 CAW        -30.0664   9.7258   7.1599 C.ar           1 <1>               -0.0109
     19 NAL        -34.0185   8.0041   7.5557 N.3            1 <1>               -0.3080
     20 OAI        -33.9532   1.3713  11.4174 O.3            1 <1>               -0.5068
     21 OAO        -33.4747  10.6814   8.2363 O.3            1 <1>               -0.3859
     22 OAT        -27.8925  12.3076   5.7817 O.3            1 <1>               -0.5033
     23 OAV        -27.8306   9.6220   6.3466 O.3            1 <1>               -0.5033
     24 HAA1       -35.4396   6.5162   9.2402 H              1 <1>                0.0247
     25 HAA2       -36.1853   6.5546   7.6252 H              1 <1>                0.0247
     26 HAA3       -35.4444   5.0534   8.2269 H              1 <1>                0.0247
     27 HAC1       -32.9620   6.3452   5.7621 H              1 <1>                0.0247
     28 HAC2       -33.9872   4.9532   6.1821 H              1 <1>                0.0247
     29 HAC3       -34.7281   6.4544   5.5804 H              1 <1>                0.0247
     30 HAD1       -32.5740   6.8761   9.1607 H              1 <1>                0.0331
     31 HAD2       -31.9855   5.9325   7.8308 H              1 <1>                0.0331
     32 HAF        -33.3441   3.5638   7.5093 H              1 <1>                0.0621
     33 HAG        -33.8064   1.5172   8.7999 H              1 <1>                0.0654
     34 HAJ        -33.5082   3.7462  12.4407 H              1 <1>                0.0654
     35 HAK        -33.0470   5.7932  11.1508 H              1 <1>                0.0621
     36 HAM1       -32.0181   7.9325   6.9726 H              1 <1>                0.0453
     37 HAM2       -33.0159   9.0845   6.0820 H              1 <1>                0.0453
     38 HAN        -32.0988   9.3323   8.9704 H              1 <1>                0.0656
     39 HAQ        -32.1392  12.3931   7.3609 H              1 <1>                0.0622
     40 HAR        -30.1574  13.4949   6.3687 H              1 <1>                0.0655
     41 HAW        -30.0360   8.6695   7.3821 H              1 <1>                0.0659
     42 HNAL       -34.7569   8.3266   6.9469 H              1 <1>                0.1225
     43 HOAI       -33.5316   0.6195  10.9948 H              1 <1>                0.2921
     44 HOAO       -33.7855  11.0191   7.3930 H              1 <1>                0.2103
     45 HOAT       -27.5289  12.9341   6.4118 H              1 <1>                0.2923
     46 HOAV       -27.8847   8.7749   6.7950 H              1 <1>                0.2923
     47 ****       -34.1068   8.2460   8.5220 LP             1 <1>                0.0000
     48 ****       -34.9414   1.2224  11.4529 LP             1 <1>                0.0000
     49 ****       -33.5980   1.4736  12.3466 LP             1 <1>                0.0000
     50 ****       -33.1630  11.4422   8.8055 LP             1 <1>                0.0000
     51 ****       -34.2210  10.2029   8.6990 LP             1 <1>                0.0000
     52 ****       -28.1584  12.7904   4.9473 LP             1 <1>                0.0000
     53 ****       -27.2028  11.6176   5.5621 LP             1 <1>                0.0000
     54 ****       -27.0279  10.1211   6.6731 LP             1 <1>                0.0000
     55 ****       -27.7521   9.4729   5.3609 LP             1 <1>                0.0000
@<TRIPOS>BOND
    1    1    2 1     
    2    1   24 1     
    3    1   25 1     
    4    1   26 1     
    5    2    3 1     
    6    2    4 1     
    7    2   19 1     
    8    3   27 1     
    9    3   28 1     
   10    3   29 1     
   11    4    5 1     
   12    4   30 1     
   13    4   31 1     
   14    5    6 ar    
   15    5   10 ar    
   16    6    7 ar    
   17    6   32 1     
   18    7    8 ar    
   19    7   33 1     
   20    8    9 ar    
   21    8   20 1     
   22    9   10 ar    
   23    9   34 1     
   24   10   35 1     
   25   11   12 1     
   26   11   19 1     
   27   11   36 1     
   28   11   37 1     
   29   12   13 1     
   30   12   21 1     
   31   12   38 1     
   32   13   14 ar    
   33   13   18 ar    
   34   14   15 ar    
   35   14   39 1     
   36   15   16 ar    
   37   15   40 1     
   38   16   17 ar    
   39   16   22 1     
   40   17   18 ar    
   41   17   23 1     
   42   18   41 1     
   43   19   42 1     
   44   20   43 1     
   45   21   44 1     
   46   22   45 1     
   47   23   46 1     
   48   19   47 1     
   49   20   48 1     
   50   20   49 1     
   51   21   50 1     
   52   21   51 1     
   53   22   52 1     
   54   22   53 1     
   55   23   54 1     
   56   23   55 1     
@<TRIPOS>SUBSTRUCTURE
      1 ****           1
@<TRIPOS>SET
LONE_PAIRS      STATIC     ATOMS    <user>   **** ""
9 47 48 49 50 51 52 53 54 55
DONOR_HYDROGENS      STATIC     ATOMS    <user>   **** ""
5 42 43 44 45 46
ATOM$BLUE        STATIC     ATOMS    COLORGROUP SYSTEM
9 47 48 49 50 51 52 53 54 55
ATOM$RED        STATIC     ATOMS    COLORGROUP SYSTEM
5 42 43 44 45 46
@<TRIPOS>COMMENT
> <Gold.Version>
5.5

> <Gold.Id.Protein>
unknown|dok_beta2|pdb

> <Gold.Protein.RotatedTorsions>
[ 4175 4166 4165 4163 ] final  134.19 input -179.98 | X-H torsion
[ 1294 1290 1288 1285 ] final  -16.57 input -179.99 | X-H torsion
[ 4033 4024 4023 4021 ] final -129.00 input  179.98 | X-H torsion
[ 1412 1408 1406 1403 ] final -146.97 input -179.99 | X-H torsion
[ 2830 2825 2824 2821 ] final  -56.99 input -179.98 | X-H torsion
[ 2723 2714 2713 2711 ] final   34.67 input -179.98 | X-H torsion
[ 2773 2768 2767 2764 ] final -105.09 input  180.00 | X-H torsion

> <Gold.Protein.ActiveResidues>
 TRP109  THR110  ASP113  VAL114  VAL117  THR118  PHE193  TYR199  SER203  SER207 
 PHE208  TRP286  PHE289  PHE290  ASN293  TYR308  ASN312  TYR316 

> <Gold.Protein.RotatedAtoms>
  -35.1978    4.7618    2.2413 H   0  0  0  0  0  0  0  0  0  0  0  0  # atno 1294 bound_to 1290
  -26.7530   14.7929    1.9748 H   0  0  0  0  0  0  0  0  0  0  0  0  # atno 1412 bound_to 1408
  -26.4434    7.5308    1.1509 H   0  0  0  0  0  0  0  0  0  0  0  0  # atno 2723 bound_to 2714
  -24.5602   10.0408    3.8532 H   0  0  0  0  0  0  0  0  0  0  0  0  # atno 2773 bound_to 2768
  -24.2442   14.1491    2.0052 H   0  0  0  0  0  0  0  0  0  0  0  0  # atno 2830 bound_to 2825
  -27.7660    5.9744   11.4198 H   0  0  0  0  0  0  0  0  0  0  0  0  # atno 4033 bound_to 4024
  -36.8948    9.3051    7.0585 H   0  0  0  0  0  0  0  0  0  0  0  0  # atno 4175 bound_to 4166
  -37.7077    8.3429    8.0455 LP  0  0  0  0  0  0  0  0  0  0  0  0  # atno 4597 bound_to 4166
  -36.1495    8.7247    8.3503 LP  0  0  0  0  0  0  0  0  0  0  0  0  # atno 4598 bound_to 4166
  -33.8777    3.8574    2.2692 LP  0  0  0  0  0  0  0  0  0  0  0  0  # atno 4603 bound_to 1290
  -34.8811    3.8273    0.9812 LP  0  0  0  0  0  0  0  0  0  0  0  0  # atno 4604 bound_to 1290
  -28.9158    7.0709   11.2252 LP  0  0  0  0  0  0  0  0  0  0  0  0  # atno 4607 bound_to 4024
  -29.0706    5.5784   10.5810 LP  0  0  0  0  0  0  0  0  0  0  0  0  # atno 4608 bound_to 4024
  -28.3126   14.5852    2.2676 LP  0  0  0  0  0  0  0  0  0  0  0  0  # atno 4611 bound_to 1408
  -27.3238   15.1963    3.4145 LP  0  0  0  0  0  0  0  0  0  0  0  0  # atno 4612 bound_to 1408
  -24.9647   12.9541    2.7880 LP  0  0  0  0  0  0  0  0  0  0  0  0  # atno 4613 bound_to 2825
  -23.3496   13.1682    2.8983 LP  0  0  0  0  0  0  0  0  0  0  0  0  # atno 4614 bound_to 2825

> <Gold.Score>
     Score         DG    S(hbond)    S(metal)    S(lipo)     H(rot)  DE(clash)    DE(int)     intcor
     31.45     -32.36       2.91        0.00     241.48       4.33       0.07       0.84       0.20

> <Gold.Chemscore.Fitness>
31.4460

> <Gold.Chemscore.DG>
-32.3603

> <Gold.Chemscore.ZeroCoef>
-5.4800

> <Gold.Chemscore.Hbond>
2.9084

> <Gold.Chemscore.Metal>
0.0000

> <Gold.Chemscore.Lipo>
241.4809

> <Gold.Chemscore.Internal_Hbond>
0.0000

> <Gold.Chemscore.DEClash>
0.0719

> <Gold.Chemscore.DEInternal>
0.8424

> <Gold.Chemscore.Rot>
4.3308

> <Gold.Chemscore.Internal.Correction>
0.1970

> <Gold.Chemscore.Hbonds>
donor molecule, donor type, donor heavy atom, donor atom, acceptor molecule, acceptor atom, score
      L1  H    19    42       P1  1335  0.96
      L1  H    21    44       P1  1334  0.98
      P1  H  4097  4104       L1    21  0.96

> <Gold.Chemscore.Hbond.Weighted>
-9.7139

> <Gold.Chemscore.Metal.Weighted>
-0.0000

> <Gold.Chemscore.Lipo.Weighted>
-28.2533

> <Gold.Chemscore.Internal_Hbond.Weighted>
0.0000

> <Gold.Chemscore.DEClash.Weighted>
0.0719

> <Gold.Chemscore.DEInternal.Weighted>
0.8424

> <Gold.Chemscore.Rot.Weighted>
11.0869

> <Gold.Chemscore.Internal.Correction.Weighted>
0.1970

