#       Name:                C:\Users\porto\OneDrive\projekt\beta1\ligandy\L_6h7n.pdb L_6h7n.pdb 1
#       Creating user name   student
#       Creation time:       Mon Apr 01 15:38:31 2019


#       File generated by GOLD software.
#

@<TRIPOS>MOLECULE
C:\Users\porto\OneDrive\projekt\beta1\ligandy\L_6h7n.pdb L_6h7n.pdb 1|6h7n|mol2|1|dock1
    60    61     1
SMALL
GASTEIGER


@<TRIPOS>ATOM
      1 C1         -23.4084   2.9384  13.2964 C.3            1 <1>                0.0396
      2 N1         -23.4985   4.3738  13.5541 N.am           1 <1>               -0.2813
      3 O1         -23.3783   3.3442  10.9180 O.3            1 <1>               -0.3767
      4 C2         -22.6971   2.7041  11.9889 C.3            1 <1>                0.0635
      5 N2         -23.1048   6.2100  14.9276 N.am           1 <1>               -0.2980
      6 O2         -22.7536   4.1572  15.6783 O.2            1 <1>               -0.2526
      7 C3         -23.4174   4.7486  11.1432 C.3            1 <1>                0.0635
      8 N3         -21.4865   8.9305  16.7403 N.3            1 <1>               -0.3119
      9 O3         -23.4613  10.9945  19.8332 O.3            1 <1>               -0.4894
     10 C4         -24.1038   5.1010  12.4408 C.3            1 <1>                0.0396
     11 O4         -26.7962  15.3785  19.5331 O.3            1 <1>               -0.5068
     12 C5         -23.0856   4.9016  14.7579 C.2            1 <1>                0.3024
     13 O5         -22.8776   8.0746  19.3642 O.3            1 <1>               -0.3872
     14 C6         -22.7279   6.8437  16.1849 C.3            1 <1>                0.0256
     15 C7         -21.4335   7.6242  16.0794 C.3            1 <1>                0.0116
     16 C8         -20.9679   8.9037  18.1083 C.3            1 <1>                0.0252
     17 C9         -22.0462   9.2053  19.1411 C.3            1 <1>                0.1015
     18 C10        -22.8928  10.3693  18.6738 C.3            1 <1>                0.1166
     19 C11        -24.2782  12.0893  19.6909 C.ar           1 <1>                0.1209
     20 C12        -24.8548  12.5832  20.8537 C.ar           1 <1>               -0.0165
     21 C13        -25.6951  13.6865  20.8074 C.ar           1 <1>               -0.0167
     22 C14        -25.9718  14.3003  19.5964 C.ar           1 <1>                0.1171
     23 C15        -25.4003  13.8081  18.4377 C.ar           1 <1>               -0.0167
     24 C16        -24.5590  12.7099  18.4795 C.ar           1 <1>               -0.0165
     25 H11        -24.4113   2.5154  13.2454 H              1 <1>                0.0488
     26 H12        -22.8536   2.4594  14.1028 H              1 <1>                0.0488
     27 H21        -22.6400   1.6332  11.7937 H              1 <1>                0.0575
     28 H22        -21.6797   3.0904  12.0546 H              1 <1>                0.0575
     29 HN2        -23.3885   6.8136  14.1685 H              1 <1>                0.1503
     30 H31        -23.9348   5.2334  10.3156 H              1 <1>                0.0575
     31 H32        -22.4016   5.1424  11.1518 H              1 <1>                0.0575
     32 HN3        -22.4516   9.2284  16.7511 H              1 <1>                0.1221
     33 H41        -24.0171   6.1736  12.6172 H              1 <1>                0.0488
     34 H42        -25.1616   4.8462  12.3727 H              1 <1>                0.0488
     35 HO4        -27.2919  15.4515  20.3515 H              1 <1>                0.2921
     36 HO5        -23.7989   8.3351  19.2907 H              1 <1>                0.2100
     37 H61        -22.6305   6.0823  16.9591 H              1 <1>                0.0475
     38 H62        -23.5269   7.5100  16.5087 H              1 <1>                0.0475
     39 H71        -20.6200   7.0363  16.5053 H              1 <1>                0.0439
     40 H72        -21.1778   7.7601  15.0290 H              1 <1>                0.0439
     41 H81        -20.1606   9.6299  18.2043 H              1 <1>                0.0450
     42 H82        -20.5336   7.9247  18.3120 H              1 <1>                0.0450
     43 H9         -21.5655   9.4769  20.0806 H              1 <1>                0.0640
     44 H101       -22.2637  11.0867  18.1458 H              1 <1>                0.0723
     45 H102       -23.6924  10.0013  18.0305 H              1 <1>                0.0723
     46 H12        -24.6502  12.1086  21.8019 H              1 <1>                0.0655
     47 H13        -26.1349  14.0685  21.7165 H              1 <1>                0.0655
     48 H15        -25.6089  14.2817  17.4895 H              1 <1>                0.0655
     49 H16        -24.1196  12.3356  17.5666 H              1 <1>                0.0655
     50 ****       -24.3120   2.9910  10.8601 LP             1 <1>                0.0000
     51 ****       -22.8980   3.1586  10.0608 LP             1 <1>                0.0000
     52 ****       -22.7828   3.1653  15.5545 LP             1 <1>                0.0000
     53 ****       -22.4543   4.5435  16.5508 LP             1 <1>                0.0000
     54 ****       -20.9045   9.5643  16.2309 LP             1 <1>                0.0000
     55 ****       -22.6971  11.2777  20.4127 LP             1 <1>                0.0000
     56 ****       -23.9965  10.2943  20.3058 LP             1 <1>                0.0000
     57 ****       -27.4306  15.2684  18.7680 LP             1 <1>                0.0000
     58 ****       -26.2520  16.2066  19.3983 LP             1 <1>                0.0000
     59 ****       -22.7062   7.7103  20.2795 LP             1 <1>                0.0000
     60 ****       -22.6745   7.3719  18.6823 LP             1 <1>                0.0000
@<TRIPOS>BOND
    1    1    2 1     
    2    1    4 1     
    3    1   25 1     
    4    1   26 1     
    5    2   10 1     
    6    2   12 am    
    7    3    4 1     
    8    3    7 1     
    9    4   27 1     
   10    4   28 1     
   11    5   12 am    
   12    5   14 1     
   13    5   29 1     
   14    6   12 2     
   15    7   10 1     
   16    7   30 1     
   17    7   31 1     
   18    8   16 1     
   19    8   15 1     
   20    8   32 1     
   21    9   18 1     
   22    9   19 1     
   23   10   33 1     
   24   10   34 1     
   25   11   22 1     
   26   11   35 1     
   27   13   17 1     
   28   13   36 1     
   29   14   15 1     
   30   14   37 1     
   31   14   38 1     
   32   15   39 1     
   33   15   40 1     
   34   16   17 1     
   35   16   41 1     
   36   16   42 1     
   37   17   18 1     
   38   17   43 1     
   39   18   44 1     
   40   18   45 1     
   41   19   20 ar    
   42   19   24 ar    
   43   20   21 ar    
   44   20   46 1     
   45   21   22 ar    
   46   21   47 1     
   47   22   23 ar    
   48   23   24 ar    
   49   23   48 1     
   50   24   49 1     
   51    3   50 1     
   52    3   51 1     
   53    6   52 1     
   54    6   53 1     
   55    8   54 1     
   56    9   55 1     
   57    9   56 1     
   58   11   57 1     
   59   11   58 1     
   60   13   59 1     
   61   13   60 1     
@<TRIPOS>SUBSTRUCTURE
      1 ****           1
@<TRIPOS>SET
LONE_PAIRS      STATIC     ATOMS    <user>   **** ""
11 50 51 52 53 54 55 56 57 58 59 60
DONOR_HYDROGENS      STATIC     ATOMS    <user>   **** ""
4 29 32 35 36
ATOM$BLUE        STATIC     ATOMS    COLORGROUP SYSTEM
11 50 51 52 53 54 55 56 57 58 59 60
ATOM$RED        STATIC     ATOMS    COLORGROUP SYSTEM
4 29 32 35 36
@<TRIPOS>COMMENT
> <Gold.Version>
5.5

> <Gold.Id.Protein>
unknown|bialko_beta1|pdb

> <Gold.Protein.ActiveResidues>
 ALA86   ASP87   VAL90   VAL94   VAL95   GLY98   ALA99   LEU101  VAL102  CYS114 
 GLU115  TRP117  THR118  SER119  LEU120  ASP121  VAL122  CYS124  VAL125  THR126 
 SER128  SER173  PHE174  ILE177  CYS199  ASP200  PHE201  TYR207  SER215  PHE299 
 TRP303  PHE306  PHE307  ASN310  PHE325  VAL326  ASN329  TRP330  GLY332  TYR333 
 SER336 

> <Gold.Score>
     Score     S(PLP)   S(hbond)     S(cho)   S(metal)  DE(clash)   DE(tors)     intcor
     70.24     -69.91       0.79       0.00       0.00       0.00       1.38       0.71

> <Gold.PLP.Fitness>
70.2416

> <Gold.PLP.PLP>
-69.9106

> <Gold.PLP.part.hbond>
-3.2482

> <Gold.PLP.part.metal>
0.0000

> <Gold.PLP.part.buried>
-9.9401

> <Gold.PLP.part.nonpolar>
-60.1794

> <Gold.PLP.part.repulsive>
2.3230

> <Gold.PLP.ligand.clash>
0.0000

> <Gold.PLP.ligand.torsion>
1.3796

> <Gold.PLP.Chemscore.Hbond>
0.7930

> <Gold.PLP.Chemscore.CHOScore>
0.0000

> <Gold.PLP.Chemscore.Metal>
0.0000

> <Gold.Chemscore.Hbonds>
donor molecule, donor type, donor heavy atom, donor atom, acceptor molecule, acceptor atom, score
      L1  H    13    36       P1  2066  0.79

> <Gold.PLP.Chemscore.Internal.Correction>
0.7112

