#       Name:                C:\Users\porto\OneDrive\projekt\beta1\ligandy\L_4bvn.pdb L_4bvn.pdb 1
#       Creating user name   student
#       Creation time:       Mon Apr 01 15:37:37 2019


#       File generated by GOLD software.
#

@<TRIPOS>MOLECULE
C:\Users\porto\OneDrive\projekt\beta1\ligandy\L_4bvn.pdb L_4bvn.pdb 1
    48    49     1
SMALL
GASTEIGER


@<TRIPOS>ATOM
      1 C1          -0.9765   0.6330  -4.2662 C.2            1 <1>                0.1822
      2 N1          -0.4435  -0.3120  -5.0082 N.1            1 <1>               -0.3633
      3 O1          -0.8435  -1.4880  -0.6742 O.3            1 <1>               -0.4884
      4 C2          -1.0595   0.2070  -2.9852 C.3            1 <1>                0.0496
      5 N2           0.1295   0.5090   2.9288 N.3            1 <1>               -0.3088
      6 O2          -0.5335  -2.2260   2.8208 O.3            1 <1>               -0.3872
      7 C3          -0.5835  -1.0380  -2.9472 C.ar           1 <1>                0.0656
      8 N3          -1.6845   3.1600  -5.1752 N.1            1 <1>               -0.1885
      9 C4          -0.4525  -1.9180  -1.9342 C.ar           1 <1>                0.1336
     10 C5           0.0285  -3.1700  -2.1982 C.ar           1 <1>               -0.0184
     11 C6           0.4075  -3.5440  -3.4902 C.ar           1 <1>               -0.0489
     12 C7           0.2265  -2.6010  -4.5142 C.ar           1 <1>                0.0031
     13 C8          -0.2505  -1.3770  -4.2302 C.ar           1 <1>               -0.0070
     14 C9          -0.3585  -2.1730   0.3998 C.3            1 <1>                0.1166
     15 C10         -0.7165  -1.3710   1.6498 C.3            1 <1>                0.1015
     16 C11          0.2135  -0.1970   1.6468 C.3            1 <1>                0.0256
     17 C12          0.6095   1.9550   2.8408 C.3            1 <1>                0.0108
     18 C13          0.8455   2.5890   4.2508 C.3            1 <1>               -0.0473
     19 C14         -0.4625   2.8280   2.1188 C.3            1 <1>               -0.0473
     20 C15          1.9155   2.1400   2.0488 C.3            1 <1>               -0.0473
     21 C16         -1.3655   1.9880  -4.7322 C.1            1 <1>                0.1289
     22 H21         -2.1025   0.2060  -2.6702 H              1 <1>                0.0403
     23 H22         -0.4495   0.8480  -2.3492 H              1 <1>                0.0403
     24 HN2          0.6965   0.0050   3.5958 H              1 <1>                0.1225
     25 HO2         -0.7555  -1.7340   3.6148 H              1 <1>                0.2100
     26 H5           0.1215  -3.8920  -1.4002 H              1 <1>                0.0654
     27 H6           0.8215  -4.5260  -3.6692 H              1 <1>                0.0625
     28 H7           0.4705  -2.8580  -5.5342 H              1 <1>                0.0725
     29 H91          0.7255  -2.2540   0.3188 H              1 <1>                0.0723
     30 H92         -0.8335  -3.1530   0.4498 H              1 <1>                0.0723
     31 H10         -1.7505  -1.0300   1.5928 H              1 <1>                0.0640
     32 H111         1.2345  -0.5430   1.4898 H              1 <1>                0.0451
     33 H112        -0.0615   0.4820   0.8398 H              1 <1>                0.0451
     34 H131         1.1865   3.6180   4.1348 H              1 <1>                0.0247
     35 H132        -0.0865   2.5770   4.8158 H              1 <1>                0.0247
     36 H133         1.6015   2.0150   4.7858 H              1 <1>                0.0247
     37 H141        -0.1125   3.8590   2.0598 H              1 <1>                0.0247
     38 H142        -0.6275   2.4430   1.1128 H              1 <1>                0.0247
     39 H143        -1.3975   2.7930   2.6788 H              1 <1>                0.0247
     40 H151         2.1865   3.1960   2.0348 H              1 <1>                0.0247
     41 H152         2.7125   1.5670   2.5228 H              1 <1>                0.0247
     42 H153         1.7745   1.7880   1.0268 H              1 <1>                0.0247
     43 ****        -1.8415  -1.5380  -0.6363 LP             1 <1>                0.0000
     44 ****        -0.5536  -0.5357  -0.5787 LP             1 <1>                0.0000
     45 ****        -0.8300   0.5429   3.2084 LP             1 <1>                0.0000
     46 ****         0.4196  -2.5248   2.8695 LP             1 <1>                0.0000
     47 ****        -1.1300  -3.0252   2.7463 LP             1 <1>                0.0000
     48 ****        -1.9312   4.0665  -5.5179 LP             1 <1>                0.0000
@<TRIPOS>BOND
    1    1    4 1     
    2    1   21 1     
    3    1    2 2     
    4    2   13 2     
    5    3    9 1     
    6    3   14 1     
    7    4    7 1     
    8    4   22 1     
    9    4   23 1     
   10    5   17 1     
   11    5   16 1     
   12    5   24 1     
   13    6   15 1     
   14    6   25 1     
   15    7    9 ar    
   16    7   13 ar    
   17    8   21 3     
   18    9   10 ar    
   19   10   11 ar    
   20   10   26 1     
   21   11   12 ar    
   22   11   27 1     
   23   12   13 ar    
   24   12   28 1     
   25   14   15 1     
   26   14   29 1     
   27   14   30 1     
   28   15   16 1     
   29   15   31 1     
   30   16   32 1     
   31   16   33 1     
   32   17   18 1     
   33   17   19 1     
   34   17   20 1     
   35   18   34 1     
   36   18   35 1     
   37   18   36 1     
   38   19   37 1     
   39   19   38 1     
   40   19   39 1     
   41   20   40 1     
   42   20   41 1     
   43   20   42 1     
   44    3   43 1     
   45    3   44 1     
   46    5   45 1     
   47    6   46 1     
   48    6   47 1     
   49    8   48 1     
@<TRIPOS>SUBSTRUCTURE
      1 ****           1
@<TRIPOS>SET
LONE_PAIRS      STATIC     ATOMS    <user>   **** ""
6 43 44 45 46 47 48
DONOR_HYDROGENS      STATIC     ATOMS    <user>   **** ""
2 24 25
ATOM$BLUE        STATIC     ATOMS    COLORGROUP SYSTEM
6 43 44 45 46 47 48
ATOM$RED        STATIC     ATOMS    COLORGROUP SYSTEM
2 24 25
