#       Name:                C:\Users\porto\OneDrive\projekt\beta1\ligandy\L_4bvn.pdb L_4bvn.pdb 1
#       Creating user name   student
#       Creation time:       Mon Apr 01 15:37:40 2019


#       File generated by GOLD software.
#

@<TRIPOS>MOLECULE
C:\Users\porto\OneDrive\projekt\beta1\ligandy\L_4bvn.pdb L_4bvn.pdb 1|4bvn|mol2|1|dock1
    48    49     1
SMALL
GASTEIGER


@<TRIPOS>ATOM
      1 C1         -23.3076   4.7296  12.5445 C.2            1 <1>                0.1822
      2 N1         -23.5957   3.7332  13.3518 N.1            1 <1>               -0.3633
      3 O1         -23.3004   7.6972  15.4793 O.3            1 <1>               -0.4884
      4 C2         -23.2338   5.8782  13.2550 C.3            1 <1>                0.0496
      5 N2         -24.3078  10.0323  18.8328 N.3            1 <1>               -0.3088
      6 O2         -21.5271   8.1680  17.1748 O.3            1 <1>               -0.3872
      7 C3         -23.5037   5.5789  14.5261 C.ar           1 <1>                0.0656
      8 N3         -22.7947   4.4774   9.8267 N.1            1 <1>               -0.1885
      9 C4         -23.5766   6.3460  15.6325 C.ar           1 <1>                0.1336
     10 C5         -23.9326   5.7696  16.8197 C.ar           1 <1>               -0.0184
     11 C6         -24.1978   4.4006  16.9108 C.ar           1 <1>               -0.0489
     12 C7         -24.1345   3.6508  15.7257 C.ar           1 <1>                0.0031
     13 C8         -23.7845   4.2406  14.5698 C.ar           1 <1>               -0.0070
     14 C9         -23.8021   8.5493  16.4174 C.3            1 <1>                0.1166
     15 C10        -22.8790   8.4818  17.6328 C.3            1 <1>                0.1015
     16 C11        -22.9678   9.8328  18.2730 C.3            1 <1>                0.0256
     17 C12        -24.2818  10.6807  20.2141 C.3            1 <1>                0.0108
     18 C13        -25.7147  10.8518  20.8167 C.3            1 <1>               -0.0473
     19 C14        -23.6500  12.1037  20.1216 C.3            1 <1>               -0.0473
     20 C15        -23.4525   9.9118  21.2574 C.3            1 <1>               -0.0473
     21 C16        -23.0322   4.6176  11.0898 C.1            1 <1>                0.1289
     22 H21        -23.9766   6.5831  12.8830 H              1 <1>                0.0403
     23 H22        -22.2251   6.2845  13.1845 H              1 <1>                0.0403
     24 HN2        -24.7545   9.1282  18.8926 H              1 <1>                0.1225
     25 HO2        -21.3700   8.5897  16.3267 H              1 <1>                0.2100
     26 H5         -24.0134   6.3746  17.7108 H              1 <1>                0.0654
     27 H6         -24.4397   3.9592  17.8670 H              1 <1>                0.0625
     28 H7         -24.3677   2.5966  15.7406 H              1 <1>                0.0725
     29 H91        -24.8028   8.2253  16.7034 H              1 <1>                0.0723
     30 H92        -23.8050   9.5648  16.0207 H              1 <1>                0.0723
     31 H10        -23.2271   7.7153  18.3256 H              1 <1>                0.0640
     32 H111       -22.2277   9.9068  19.0690 H              1 <1>                0.0451
     33 H112       -22.7679  10.6019  17.5270 H              1 <1>                0.0451
     34 H131       -25.6430  11.3171  21.8000 H              1 <1>                0.0247
     35 H132       -26.3129  11.4827  20.1594 H              1 <1>                0.0247
     36 H133       -26.1884   9.8751  20.9118 H              1 <1>                0.0247
     37 H141       -23.6349  12.5601  21.1118 H              1 <1>                0.0247
     38 H142       -22.6312  12.0252  19.7429 H              1 <1>                0.0247
     39 H143       -24.2421  12.7213  19.4456 H              1 <1>                0.0247
     40 H151       -23.4867  10.4397  22.2107 H              1 <1>                0.0247
     41 H152       -23.8638   8.9101  21.3823 H              1 <1>                0.0247
     42 H153       -22.4187   9.8396  20.9194 H              1 <1>                0.0247
     43 ****       -23.6650   7.9793  14.5919 LP             1 <1>                0.0000
     44 ****       -22.3059   7.8021  15.4796 LP             1 <1>                0.0000
     45 ****       -24.8108  10.6556  18.2341 LP             1 <1>                0.0000
     46 ****       -21.4297   7.1776  17.0775 LP             1 <1>                0.0000
     47 ****       -20.8627   8.5044  17.8423 LP             1 <1>                0.0000
     48 ****       -22.6110   4.3690   8.8497 LP             1 <1>                0.0000
@<TRIPOS>BOND
    1    1    4 1     
    2    1   21 1     
    3    1    2 2     
    4    2   13 2     
    5    3    9 1     
    6    3   14 1     
    7    4    7 1     
    8    4   22 1     
    9    4   23 1     
   10    5   17 1     
   11    5   16 1     
   12    5   24 1     
   13    6   15 1     
   14    6   25 1     
   15    7    9 ar    
   16    7   13 ar    
   17    8   21 3     
   18    9   10 ar    
   19   10   11 ar    
   20   10   26 1     
   21   11   12 ar    
   22   11   27 1     
   23   12   13 ar    
   24   12   28 1     
   25   14   15 1     
   26   14   29 1     
   27   14   30 1     
   28   15   16 1     
   29   15   31 1     
   30   16   32 1     
   31   16   33 1     
   32   17   18 1     
   33   17   19 1     
   34   17   20 1     
   35   18   34 1     
   36   18   35 1     
   37   18   36 1     
   38   19   37 1     
   39   19   38 1     
   40   19   39 1     
   41   20   40 1     
   42   20   41 1     
   43   20   42 1     
   44    3   43 1     
   45    3   44 1     
   46    5   45 1     
   47    6   46 1     
   48    6   47 1     
   49    8   48 1     
@<TRIPOS>SUBSTRUCTURE
      1 ****           1
@<TRIPOS>SET
LONE_PAIRS      STATIC     ATOMS    <user>   **** ""
6 43 44 45 46 47 48
DONOR_HYDROGENS      STATIC     ATOMS    <user>   **** ""
2 24 25
ATOM$BLUE        STATIC     ATOMS    COLORGROUP SYSTEM
6 43 44 45 46 47 48
ATOM$RED        STATIC     ATOMS    COLORGROUP SYSTEM
2 24 25
@<TRIPOS>COMMENT
> <Gold.Version>
5.5

> <Gold.Id.Protein>
unknown|bialko_beta1|pdb

> <Gold.Protein.ActiveResidues>
 ALA86   ASP87   VAL90   VAL94   VAL95   GLY98   ALA99   LEU101  VAL102  CYS114 
 GLU115  TRP117  THR118  SER119  LEU120  ASP121  VAL122  CYS124  VAL125  THR126 
 SER128  SER173  PHE174  ILE177  CYS199  ASP200  PHE201  TYR207  SER215  PHE299 
 TRP303  PHE306  PHE307  ASN310  PHE325  VAL326  ASN329  TRP330  GLY332  TYR333 
 SER336 

> <Gold.Score>
     Score     S(PLP)   S(hbond)     S(cho)   S(metal)  DE(clash)   DE(tors)     intcor
     60.21     -59.10       1.00       0.00       0.00       0.07       1.11       0.40

> <Gold.PLP.Fitness>
60.2092

> <Gold.PLP.PLP>
-59.0958

> <Gold.PLP.part.hbond>
-1.9601

> <Gold.PLP.part.metal>
0.0000

> <Gold.PLP.part.buried>
-7.2489

> <Gold.PLP.part.nonpolar>
-50.6052

> <Gold.PLP.part.repulsive>
0.3704

> <Gold.PLP.ligand.clash>
0.0704

> <Gold.PLP.ligand.torsion>
1.1070

> <Gold.PLP.Chemscore.Hbond>
1.0000

> <Gold.PLP.Chemscore.CHOScore>
0.0000

> <Gold.PLP.Chemscore.Metal>
0.0000

> <Gold.Chemscore.Hbonds>
donor molecule, donor type, donor heavy atom, donor atom, acceptor molecule, acceptor atom, score
      L1  H     5    24       P1  2066  1.00

> <Gold.PLP.Chemscore.Internal.Correction>
0.3977

