#       Name:                C:\Users\porto\OneDrive\projekt\beta2\ligandy\L_2rh1.pdb L_2rh1.pdb 1
#       Creating user name   student
#       Creation time:       Mon Apr 08 15:45:50 2019


#       File generated by GOLD software.
#

@<TRIPOS>MOLECULE
C:\Users\porto\OneDrive\projekt\beta2\ligandy\L_2rh1.pdb L_2rh1.pdb 1
    49    51     1
SMALL
GASTEIGER


@<TRIPOS>ATOM
      1 C1           3.8842  -2.4733   0.6630 C.ar           1 <1>               -0.0598
      2 C2           4.6902  -1.5673  -0.0170 C.ar           1 <1>               -0.0378
      3 C3           4.1832  -0.3443  -0.3890 C.ar           1 <1>                0.0476
      4 C4           2.7972  -0.0423  -0.0500 C.ar           1 <1>                0.0109
      5 C5           2.0102  -0.9573   0.6260 C.ar           1 <1>               -0.0519
      6 C6           2.5622  -2.1743   0.9800 C.ar           1 <1>               -0.0611
      7 N7           4.6862   0.7517  -1.0520 N.pl3          1 <1>               -0.3540
      8 C8           3.7142   1.7197  -1.1510 C.ar           1 <1>                0.0510
      9 C9           2.5112   1.2028  -0.5090 C.ar           1 <1>                0.0490
     10 C10          3.6712   2.9697  -1.6940 C.ar           1 <1>               -0.0375
     11 C11          2.5112   3.7227  -1.6330 C.ar           1 <1>               -0.0563
     12 C12          1.3682   3.2277  -1.0210 C.ar           1 <1>               -0.0192
     13 C13          1.3482   1.9517  -0.4450 C.ar           1 <1>                0.1303
     14 O14          0.2302   1.4618   0.1560 O.3            1 <1>               -0.4887
     15 C15         -0.9628   2.1997   0.3380 C.3            1 <1>                0.1166
     16 C16         -1.9878   1.3247   1.0150 C.3            1 <1>                0.1015
     17 O17         -3.1978   2.0518   1.1440 O.3            1 <1>               -0.3872
     18 C18         -2.1988   0.0457   0.1990 C.3            1 <1>                0.0254
     19 N19         -3.4228  -0.6553   0.5740 N.3            1 <1>               -0.3112
     20 C20         -3.5268  -2.1003   0.4720 C.3            1 <1>                0.0021
     21 C21         -3.2538  -2.5203  -0.9710 C.3            1 <1>               -0.0499
     22 C22         -4.9048  -2.5553   0.9620 C.3            1 <1>               -0.0499
     23 H1           4.3052  -3.4273   0.9460 H              1 <1>                0.0618
     24 H2           5.7122  -1.8243  -0.2520 H              1 <1>                0.0638
     25 H5           0.9862  -0.7142   0.8670 H              1 <1>                0.0624
     26 H6           1.9572  -2.8963   1.5080 H              1 <1>                0.0618
     27 HN7          5.6422   0.7497  -1.3790 H              1 <1>                0.1659
     28 H10          4.5462   3.3797  -2.1760 H              1 <1>                0.0638
     29 H11          2.4862   4.7118  -2.0660 H              1 <1>                0.0619
     30 H12          0.4722   3.8297  -0.9830 H              1 <1>                0.0654
     31 H151        -1.3428   2.5207  -0.6320 H              1 <1>                0.0723
     32 H152        -0.7598   3.0697   0.9620 H              1 <1>                0.0723
     33 H16         -1.6268   1.0567   2.0080 H              1 <1>                0.0640
     34 HO17        -3.8568   1.5027   1.5740 H              1 <1>                0.2100
     35 H181        -1.3448  -0.6173   0.3370 H              1 <1>                0.0450
     36 H182        -2.2338   0.2937  -0.8620 H              1 <1>                0.0450
     37 HN19        -3.6288  -0.4763   1.5460 H              1 <1>                0.1223
     38 H20         -2.7668  -2.5483   1.1120 H              1 <1>                0.0455
     39 H211        -3.3298  -3.6043  -1.0550 H              1 <1>                0.0245
     40 H212        -3.9848  -2.0533  -1.6310 H              1 <1>                0.0245
     41 H213        -2.2508  -2.2043  -1.2590 H              1 <1>                0.0245
     42 H221        -4.9788  -3.6403   0.8840 H              1 <1>                0.0245
     43 H222        -5.0378  -2.2563   2.0020 H              1 <1>                0.0245
     44 H223        -5.6798  -2.0933   0.3500 H              1 <1>                0.0245
     45 ****         0.5168   1.1812   1.0721 LP             1 <1>                0.0000
     46 ****        -0.0296   0.6544  -0.3738 LP             1 <1>                0.0000
     47 ****        -3.5253   2.3172   0.2373 LP             1 <1>                0.0000
     48 ****        -3.0370   2.8716   1.6936 LP             1 <1>                0.0000
     49 ****        -4.0389  -0.2860  -0.1216 LP             1 <1>                0.0000
@<TRIPOS>BOND
    1    1    6 ar    
    2    1    2 ar    
    3    1   23 1     
    4    2    3 ar    
    5    2   24 1     
    6    3    4 ar    
    7    3    7 ar    
    8    4    5 ar    
    9    4    9 ar    
   10    5    6 ar    
   11    5   25 1     
   12    6   26 1     
   13    7    8 ar    
   14    7   27 1     
   15    8    9 ar    
   16    8   10 ar    
   17    9   13 ar    
   18   10   11 ar    
   19   10   28 1     
   20   11   12 ar    
   21   11   29 1     
   22   12   13 ar    
   23   12   30 1     
   24   13   14 1     
   25   14   15 1     
   26   15   16 1     
   27   15   31 1     
   28   15   32 1     
   29   16   18 1     
   30   16   17 1     
   31   16   33 1     
   32   17   34 1     
   33   18   19 1     
   34   18   35 1     
   35   18   36 1     
   36   19   20 1     
   37   19   37 1     
   38   20   21 1     
   39   20   22 1     
   40   20   38 1     
   41   21   39 1     
   42   21   40 1     
   43   21   41 1     
   44   22   42 1     
   45   22   43 1     
   46   22   44 1     
   47   14   45 1     
   48   14   46 1     
   49   17   47 1     
   50   17   48 1     
   51   19   49 1     
@<TRIPOS>SUBSTRUCTURE
      1 ****           1
@<TRIPOS>SET
LONE_PAIRS      STATIC     ATOMS    <user>   **** ""
5 45 46 47 48 49
DONOR_HYDROGENS      STATIC     ATOMS    <user>   **** ""
3 27 34 37
ATOM$BLUE        STATIC     ATOMS    COLORGROUP SYSTEM
5 45 46 47 48 49
ATOM$RED        STATIC     ATOMS    COLORGROUP SYSTEM
3 27 34 37
