#       Name:                C:\Users\porto\OneDrive\projekt\beta2\ligandy\L_2rh1.pdb L_2rh1.pdb 1
#       Creating user name   student
#       Creation time:       Mon Apr 08 15:45:51 2019


#       File generated by GOLD software.
#

@<TRIPOS>MOLECULE
C:\Users\porto\OneDrive\projekt\beta2\ligandy\L_2rh1.pdb L_2rh1.pdb 1|2rh1|mol2|1|dock1
    49    51     1
SMALL
GASTEIGER


@<TRIPOS>ATOM
      1 C1         -25.7362   7.1925   6.9336 C.ar           1 <1>               -0.0598
      2 C2         -25.0820   8.2398   6.2948 C.ar           1 <1>               -0.0378
      3 C3         -25.7406   9.4270   6.0759 C.ar           1 <1>                0.0476
      4 C4         -27.1219   9.5412   6.5297 C.ar           1 <1>                0.0109
      5 C5         -27.7566   8.4874   7.1624 C.ar           1 <1>               -0.0519
      6 C6         -27.0554   7.3128   7.3612 C.ar           1 <1>               -0.0611
      7 N7         -25.4055  10.6271   5.4916 N.pl3          1 <1>               -0.3540
      8 C8         -26.4784  11.4857   5.5486 C.ar           1 <1>                0.0510
      9 C9         -27.5700  10.7826   6.2124 C.ar           1 <1>                0.0490
     10 C10        -26.6923  12.7666   5.1330 C.ar           1 <1>               -0.0375
     11 C11        -27.9173  13.3772   5.3401 C.ar           1 <1>               -0.0563
     12 C12        -28.9539  12.7052   5.9724 C.ar           1 <1>               -0.0192
     13 C13        -28.7974  11.3886   6.4222 C.ar           1 <1>                0.1303
     14 O14        -29.8105  10.7253   7.0426 O.3            1 <1>               -0.4887
     15 C15        -31.0578  11.3065   7.3704 C.3            1 <1>                0.1166
     16 C16        -31.9327  10.2658   8.0231 C.3            1 <1>                0.1015
     17 O17        -33.1996  10.8390   8.2983 O.3            1 <1>               -0.3872
     18 C18        -32.0676   9.0493   7.1021 C.3            1 <1>                0.0254
     19 N19        -33.1804   8.1856   7.4842 N.3            1 <1>               -0.3112
     20 C20        -33.1393   6.7530   7.2495 C.3            1 <1>                0.0021
     21 C21        -32.9305   6.4967   5.7583 C.3            1 <1>               -0.0499
     22 C22        -34.4221   6.1053   7.7795 C.3            1 <1>               -0.0499
     23 H1         -25.1977   6.2699   7.0956 H              1 <1>                0.0618
     24 H2         -24.0587   8.1203   5.9717 H              1 <1>                0.0638
     25 H5         -28.7800   8.5923   7.4902 H              1 <1>                0.0624
     26 H6         -27.5408   6.4836   7.8540 H              1 <1>                0.0618
     27 HN7        -24.4812  10.7609   5.1060 H              1 <1>                0.1659
     28 H10        -25.9030  13.3130   4.6386 H              1 <1>                0.0638
     29 H11        -28.0778  14.3920   5.0073 H              1 <1>                0.0619
     30 H12        -29.9029  13.1978   6.1252 H              1 <1>                0.0654
     31 H151       -31.5397  11.6686   6.4621 H              1 <1>                0.0723
     32 H152       -30.9020  12.1344   8.0616 H              1 <1>                0.0723
     33 H16        -31.4736   9.9520   8.9606 H              1 <1>                0.0640
     34 HO17       -33.7639  10.1837   8.7140 H              1 <1>                0.2100
     35 H181       -31.1409   8.4759   7.1208 H              1 <1>                0.0450
     36 H182       -32.2064   9.3857   6.0744 H              1 <1>                0.0450
     37 HN19       -33.3320   8.2529   8.4801 H              1 <1>                0.1223
     38 H20        -32.2914   6.3370   7.7937 H              1 <1>                0.0455
     39 H211       -32.8982   5.4228   5.5747 H              1 <1>                0.0245
     40 H212       -33.7530   6.9364   5.1942 H              1 <1>                0.0245
     41 H213       -31.9901   6.9469   5.4392 H              1 <1>                0.0245
     42 H221       -34.3873   5.0301   7.6016 H              1 <1>                0.0245
     43 H222       -34.5090   6.2934   8.8499 H              1 <1>                0.0245
     44 H223       -35.2842   6.5309   7.2654 H              1 <1>                0.0245
     45 ****       -29.4295  10.3976   7.9072 LP             1 <1>                0.0000
     46 ****       -30.0224   9.9447   6.4546 LP             1 <1>                0.0000
     47 ****       -33.6190  11.1463   7.4441 LP             1 <1>                0.0000
     48 ****       -33.0859  11.6192   8.9133 LP             1 <1>                0.0000
     49 ****       -33.8814   8.5446   6.8680 LP             1 <1>                0.0000
@<TRIPOS>BOND
    1    1    6 ar    
    2    1    2 ar    
    3    1   23 1     
    4    2    3 ar    
    5    2   24 1     
    6    3    4 ar    
    7    3    7 ar    
    8    4    5 ar    
    9    4    9 ar    
   10    5    6 ar    
   11    5   25 1     
   12    6   26 1     
   13    7    8 ar    
   14    7   27 1     
   15    8    9 ar    
   16    8   10 ar    
   17    9   13 ar    
   18   10   11 ar    
   19   10   28 1     
   20   11   12 ar    
   21   11   29 1     
   22   12   13 ar    
   23   12   30 1     
   24   13   14 1     
   25   14   15 1     
   26   15   16 1     
   27   15   31 1     
   28   15   32 1     
   29   16   18 1     
   30   16   17 1     
   31   16   33 1     
   32   17   34 1     
   33   18   19 1     
   34   18   35 1     
   35   18   36 1     
   36   19   20 1     
   37   19   37 1     
   38   20   21 1     
   39   20   22 1     
   40   20   38 1     
   41   21   39 1     
   42   21   40 1     
   43   21   41 1     
   44   22   42 1     
   45   22   43 1     
   46   22   44 1     
   47   14   45 1     
   48   14   46 1     
   49   17   47 1     
   50   17   48 1     
   51   19   49 1     
@<TRIPOS>SUBSTRUCTURE
      1 ****           1
@<TRIPOS>SET
LONE_PAIRS      STATIC     ATOMS    <user>   **** ""
5 45 46 47 48 49
DONOR_HYDROGENS      STATIC     ATOMS    <user>   **** ""
3 27 34 37
ATOM$BLUE        STATIC     ATOMS    COLORGROUP SYSTEM
5 45 46 47 48 49
ATOM$RED        STATIC     ATOMS    COLORGROUP SYSTEM
3 27 34 37
@<TRIPOS>COMMENT
> <Gold.Version>
5.5

> <Gold.Id.Protein>
unknown|dok_beta2|pdb

> <Gold.Protein.RotatedTorsions>
[ 4175 4166 4165 4163 ] final -133.30 input -179.98 | X-H torsion
[ 1294 1290 1288 1285 ] final  122.78 input -179.99 | X-H torsion
[ 4033 4024 4023 4021 ] final  -23.50 input  179.98 | X-H torsion
[ 1412 1408 1406 1403 ] final -100.82 input -179.99 | X-H torsion
[ 2830 2825 2824 2821 ] final -159.87 input -179.98 | X-H torsion
[ 2723 2714 2713 2711 ] final  -17.84 input -179.98 | X-H torsion
[ 2773 2768 2767 2764 ] final  -34.73 input  180.00 | X-H torsion

> <Gold.Protein.ActiveResidues>
 TRP109  THR110  ASP113  VAL114  VAL117  THR118  PHE193  TYR199  SER203  SER207 
 PHE208  TRP286  PHE289  PHE290  ASN293  TYR308  ASN312  TYR316 

> <Gold.Protein.RotatedAtoms>
  -34.6062    3.6988    1.0579 H   0  0  0  0  0  0  0  0  0  0  0  0  # atno 1294 bound_to 1290
  -26.5735   15.0593    2.6073 H   0  0  0  0  0  0  0  0  0  0  0  0  # atno 1412 bound_to 1408
  -26.0288    8.1623    1.4157 H   0  0  0  0  0  0  0  0  0  0  0  0  # atno 2723 bound_to 2714
  -23.9496   10.8445    3.5920 H   0  0  0  0  0  0  0  0  0  0  0  0  # atno 2773 bound_to 2768
  -25.0478   13.1653    2.6274 H   0  0  0  0  0  0  0  0  0  0  0  0  # atno 2830 bound_to 2825
  -28.8760    5.4655   10.6542 H   0  0  0  0  0  0  0  0  0  0  0  0  # atno 4033 bound_to 4024
  -36.0581    8.9939    8.0134 H   0  0  0  0  0  0  0  0  0  0  0  0  # atno 4175 bound_to 4166
  -37.3084    9.1555    7.0277 LP  0  0  0  0  0  0  0  0  0  0  0  0  # atno 4597 bound_to 4166
  -37.4211    8.2363    8.3726 LP  0  0  0  0  0  0  0  0  0  0  0  0  # atno 4598 bound_to 4166
  -35.3871    4.7364    1.9932 LP  0  0  0  0  0  0  0  0  0  0  0  0  # atno 4603 bound_to 1290
  -33.9882    4.0561    2.4903 LP  0  0  0  0  0  0  0  0  0  0  0  0  # atno 4604 bound_to 1290
  -27.7313    6.1924   11.5048 LP  0  0  0  0  0  0  0  0  0  0  0  0  # atno 4607 bound_to 4024
  -29.0990    6.9870   11.0988 LP  0  0  0  0  0  0  0  0  0  0  0  0  # atno 4608 bound_to 4024
  -27.7975   14.4933    1.7455 LP  0  0  0  0  0  0  0  0  0  0  0  0  # atno 4611 bound_to 1408
  -28.0260   15.0105    3.2775 LP  0  0  0  0  0  0  0  0  0  0  0  0  # atno 4612 bound_to 1408
  -23.5090   12.9730    3.0217 LP  0  0  0  0  0  0  0  0  0  0  0  0  # atno 4613 bound_to 2825
  -23.9676   14.1750    2.0160 LP  0  0  0  0  0  0  0  0  0  0  0  0  # atno 4614 bound_to 2825

> <Gold.Score>
     Score     S(PLP)   S(hbond)     S(cho)   S(metal)  DE(clash)   DE(tors)     intcor
     82.11     -79.11       1.00       0.00       0.00       0.00       0.00       0.00

> <Gold.PLP.Fitness>
82.1060

> <Gold.PLP.PLP>
-79.1060

> <Gold.PLP.part.hbond>
-4.4423

> <Gold.PLP.part.metal>
0.0000

> <Gold.PLP.part.buried>
-10.4727

> <Gold.PLP.part.nonpolar>
-65.5113

> <Gold.PLP.part.repulsive>
0.0881

> <Gold.PLP.ligand.clash>
0.0000

> <Gold.PLP.ligand.torsion>
0.0000

> <Gold.PLP.Chemscore.Hbond>
1.0000

> <Gold.PLP.Chemscore.CHOScore>
0.0000

> <Gold.PLP.Chemscore.Metal>
0.0000

> <Gold.Chemscore.Hbonds>
donor molecule, donor type, donor heavy atom, donor atom, acceptor molecule, acceptor atom, score
      L1  H    19    37       P1  4098  1.00

> <Gold.PLP.Chemscore.Internal.Correction>
0.0000

