#       Name:                C:\Users\porto\OneDrive\projekt\beta1\ligandy\L_6h7n.pdb L_6h7n.pdb 1
#       Creating user name   student
#       Creation time:       Mon Apr 08 16:23:04 2019


#       File generated by GOLD software.
#

@<TRIPOS>MOLECULE
C:\Users\porto\OneDrive\projekt\beta1\ligandy\L_6h7n.pdb L_6h7n.pdb 1|6h7n|mol2|1|dock32
    60    61     1
SMALL
GASTEIGER


@<TRIPOS>ATOM
      1 C1         -23.7036   2.9734  13.8693 C.3            1 <1>                0.0396
      2 N1         -23.7426   4.4203  14.0697 N.am           1 <1>               -0.2813
      3 O1         -23.0299   3.2868  11.5735 O.3            1 <1>               -0.3767
      4 C2         -22.7005   2.6397  12.7954 C.3            1 <1>                0.0635
      5 N2         -23.5208   6.2711  15.4619 N.am           1 <1>               -0.2980
      6 O2         -23.6358   4.2339  16.3209 O.2            1 <1>               -0.2526
      7 C3         -23.0139   4.6978  11.7564 C.3            1 <1>                0.0635
      8 N3         -24.4980   9.1438  17.1238 N.3            1 <1>               -0.3119
      9 O3         -23.9199  12.3748  20.1496 O.3            1 <1>               -0.4894
     10 C4         -23.9810   5.1472  12.8250 C.3            1 <1>                0.0396
     11 O4         -28.1856  15.4493  18.4815 O.3            1 <1>               -0.5068
     12 C5         -23.6130   4.9614  15.3301 C.2            1 <1>                0.3024
     13 O5         -23.9843   9.8402  19.9580 O.3            1 <1>               -0.3872
     14 C6         -23.4274   6.9241  16.7617 C.3            1 <1>                0.0256
     15 C7         -23.3093   8.4305  16.6501 C.3            1 <1>                0.0116
     16 C8         -24.2011  10.4864  17.6241 C.3            1 <1>                0.0252
     17 C9         -23.3186  10.4585  18.8653 C.3            1 <1>                0.1015
     18 C10        -22.9258  11.8691  19.2471 C.3            1 <1>                0.1166
     19 C11        -24.9542  13.1413  19.6711 C.ar           1 <1>                0.1209
     20 C12        -25.9089  13.5363  20.5990 C.ar           1 <1>               -0.0165
     21 C13        -26.9904  14.3124  20.2073 C.ar           1 <1>               -0.0167
     22 C14        -27.1300  14.6934  18.8824 C.ar           1 <1>                0.1171
     23 C15        -26.1815  14.2988  17.9572 C.ar           1 <1>               -0.0167
     24 C16        -25.0994  13.5273  18.3440 C.ar           1 <1>               -0.0165
     25 H11        -24.6899   2.6224  13.5669 H              1 <1>                0.0488
     26 H12        -23.4150   2.4860  14.8002 H              1 <1>                0.0488
     27 H21        -22.6804   1.5609  12.6404 H              1 <1>                0.0575
     28 H22        -21.7070   2.9536  13.1164 H              1 <1>                0.0575
     29 HN2        -23.5126   6.8619  14.6423 H              1 <1>                0.1503
     30 H31        -23.2605   5.1875  10.8146 H              1 <1>                0.0575
     31 H32        -22.0066   5.0173  12.0216 H              1 <1>                0.0575
     32 HN3        -24.9111   8.5921  17.8622 H              1 <1>                0.1221
     33 H41        -23.8577   6.2165  12.9992 H              1 <1>                0.0488
     34 H42        -25.0024   4.9671  12.4890 H              1 <1>                0.0488
     35 HO4        -27.9243  16.3720  18.4468 H              1 <1>                0.2921
     36 HO5        -24.4710   9.0741  19.6446 H              1 <1>                0.2100
     37 H61        -22.5662   6.5316  17.3029 H              1 <1>                0.0475
     38 H62        -24.3046   6.6730  17.3572 H              1 <1>                0.0475
     39 H71        -22.4376   8.7683  17.2111 H              1 <1>                0.0439
     40 H72        -23.1135   8.7021  15.6132 H              1 <1>                0.0439
     41 H81        -25.1335  11.0022  17.8537 H              1 <1>                0.0450
     42 H82        -23.7088  11.0640  16.8414 H              1 <1>                0.0450
     43 H9         -22.4151   9.8922  18.6404 H              1 <1>                0.0640
     44 H101       -21.9564  11.8535  19.7462 H              1 <1>                0.0723
     45 H102       -22.8962  12.4923  18.3529 H              1 <1>                0.0723
     46 H12        -25.8125  13.2398  21.6330 H              1 <1>                0.0655
     47 H13        -27.7254  14.6208  20.9356 H              1 <1>                0.0655
     48 H15        -26.2814  14.5930  16.9227 H              1 <1>                0.0655
     49 H16        -24.3661  13.2258  17.6107 H              1 <1>                0.0655
     50 ****       -23.9423   3.0001  11.2813 LP             1 <1>                0.0000
     51 ****       -22.3614   3.0351  10.8737 LP             1 <1>                0.0000
     52 ****       -23.7488   3.2461  16.2135 LP             1 <1>                0.0000
     53 ****       -23.5414   4.6300  17.2343 LP             1 <1>                0.0000
     54 ****       -25.1217   9.2627  16.3513 LP             1 <1>                0.0000
     55 ****       -23.4387  12.9300  20.8279 LP             1 <1>                0.0000
     56 ****       -24.3318  11.5822  20.5992 LP             1 <1>                0.0000
     57 ****       -28.9388  15.3404  19.1302 LP             1 <1>                0.0000
     58 ****       -28.4821  15.1526  17.5737 LP             1 <1>                0.0000
     59 ****       -24.6195  10.4917  20.3730 LP             1 <1>                0.0000
     60 ****       -23.3108   9.5517  20.6386 LP             1 <1>                0.0000
@<TRIPOS>BOND
    1    1    2 1     
    2    1    4 1     
    3    1   25 1     
    4    1   26 1     
    5    2   10 1     
    6    2   12 am    
    7    3    4 1     
    8    3    7 1     
    9    4   27 1     
   10    4   28 1     
   11    5   12 am    
   12    5   14 1     
   13    5   29 1     
   14    6   12 2     
   15    7   10 1     
   16    7   30 1     
   17    7   31 1     
   18    8   16 1     
   19    8   15 1     
   20    8   32 1     
   21    9   18 1     
   22    9   19 1     
   23   10   33 1     
   24   10   34 1     
   25   11   22 1     
   26   11   35 1     
   27   13   17 1     
   28   13   36 1     
   29   14   15 1     
   30   14   37 1     
   31   14   38 1     
   32   15   39 1     
   33   15   40 1     
   34   16   17 1     
   35   16   41 1     
   36   16   42 1     
   37   17   18 1     
   38   17   43 1     
   39   18   44 1     
   40   18   45 1     
   41   19   20 ar    
   42   19   24 ar    
   43   20   21 ar    
   44   20   46 1     
   45   21   22 ar    
   46   21   47 1     
   47   22   23 ar    
   48   23   24 ar    
   49   23   48 1     
   50   24   49 1     
   51    3   50 1     
   52    3   51 1     
   53    6   52 1     
   54    6   53 1     
   55    8   54 1     
   56    9   55 1     
   57    9   56 1     
   58   11   57 1     
   59   11   58 1     
   60   13   59 1     
   61   13   60 1     
@<TRIPOS>SUBSTRUCTURE
      1 ****           1
@<TRIPOS>SET
LONE_PAIRS      STATIC     ATOMS    <user>   **** ""
11 50 51 52 53 54 55 56 57 58 59 60
DONOR_HYDROGENS      STATIC     ATOMS    <user>   **** ""
4 29 32 35 36
ATOM$BLUE        STATIC     ATOMS    COLORGROUP SYSTEM
11 50 51 52 53 54 55 56 57 58 59 60
ATOM$RED        STATIC     ATOMS    COLORGROUP SYSTEM
4 29 32 35 36
@<TRIPOS>COMMENT
> <Gold.Version>
5.5

> <Gold.Id.Protein>
unknown|bialko_beta1|pdb

> <Gold.Protein.ActiveResidues>
 ALA86   ASP87   VAL90   VAL94   VAL95   GLY98   ALA99   LEU101  VAL102  CYS114 
 GLU115  TRP117  THR118  SER119  LEU120  ASP121  VAL122  CYS124  VAL125  THR126 
 SER128  SER173  PHE174  ILE177  CYS199  ASP200  PHE201  TYR207  SER215  PHE299 
 TRP303  PHE306  PHE307  ASN310  PHE325  VAL326  ASN329  TRP330  GLY332  TYR333 
 SER336 

> <Gold.Score>
     Score     S(PLP)   S(hbond)     S(cho)   S(metal)  DE(clash)   DE(tors)     intcor
     74.51     -70.66       2.00       0.00       0.00       0.00       1.18       0.21

> <Gold.PLP.Fitness>
74.5074

> <Gold.PLP.PLP>
-70.6641

> <Gold.PLP.part.hbond>
-1.9976

> <Gold.PLP.part.metal>
0.0000

> <Gold.PLP.part.buried>
-10.6298

> <Gold.PLP.part.nonpolar>
-59.8468

> <Gold.PLP.part.repulsive>
1.8513

> <Gold.PLP.ligand.clash>
0.0000

> <Gold.PLP.ligand.torsion>
1.1838

> <Gold.PLP.Chemscore.Hbond>
2.0000

> <Gold.PLP.Chemscore.CHOScore>
0.0000

> <Gold.PLP.Chemscore.Metal>
0.0000

> <Gold.Chemscore.Hbonds>
donor molecule, donor type, donor heavy atom, donor atom, acceptor molecule, acceptor atom, score
      L1  H     8    32       P1  2066  1.00
      L1  H    13    36       P1  2066  1.00

> <Gold.PLP.Chemscore.Internal.Correction>
0.2108

