#       Name:                C:\Users\porto\OneDrive\projekt\beta1\ligandy\L_6h7n.pdb L_6h7n.pdb 1
#       Creating user name   student
#       Creation time:       Mon Apr 08 16:18:05 2019


#       File generated by GOLD software.
#

@<TRIPOS>MOLECULE
C:\Users\porto\OneDrive\projekt\beta1\ligandy\L_6h7n.pdb L_6h7n.pdb 1
    60    61     1
SMALL
GASTEIGER


@<TRIPOS>ATOM
      1 C1          -1.9073   3.3574   4.4217 C.3            1 <1>                0.0396
      2 N1          -0.7373   2.6254   3.9417 N.am           1 <1>               -0.2813
      3 O1          -1.4853   2.6004   6.6737 O.3            1 <1>               -0.3767
      4 C2          -1.7023   3.7474   5.8627 C.3            1 <1>                0.0635
      5 N2           0.7257   2.1484   2.1967 N.am           1 <1>               -0.2980
      6 O2          -0.3463   4.0844   2.2587 O.2            1 <1>               -0.2526
      7 C3          -0.3143   1.9184   6.2397 C.3            1 <1>                0.0635
      8 N3           0.5137   0.2524   0.1627 N.3            1 <1>               -0.3119
      9 O3          -0.5983  -2.1186  -3.1823 O.3            1 <1>               -0.4894
     10 C4          -0.4053   1.4874   4.7957 C.3            1 <1>                0.0396
     11 O4           1.0207  -3.8096  -8.1773 O.3            1 <1>               -0.5068
     12 C5          -0.1023   2.9964   2.7767 C.2            1 <1>                0.3024
     13 O5          -0.0443  -2.4386   0.3957 O.3            1 <1>               -0.3872
     14 C6           1.4007   2.4464   0.9397 C.3            1 <1>                0.0256
     15 C7           1.6177   1.2124   0.0877 C.3            1 <1>                0.0116
     16 C8           0.3507  -0.5326  -1.0613 C.3            1 <1>                0.0252
     17 C9          -0.4303  -1.8186  -0.8233 C.3            1 <1>                0.1015
     18 C10         -0.2013  -2.7776  -1.9713 C.3            1 <1>                0.1166
     19 C11         -0.1603  -2.5906  -4.3953 C.ar           1 <1>                0.1209
     20 C12         -0.5323  -1.8556  -5.5133 C.ar           1 <1>               -0.0165
     21 C13         -0.1363  -2.2566  -6.7813 C.ar           1 <1>               -0.0167
     22 C14          0.6287  -3.4006  -6.9423 C.ar           1 <1>                0.1171
     23 C15          0.9977  -4.1346  -5.8303 C.ar           1 <1>               -0.0167
     24 C16          0.6077  -3.7366  -4.5633 C.ar           1 <1>               -0.0165
     25 H11         -2.7903   2.7244   4.3387 H              1 <1>                0.0488
     26 H12         -2.0463   4.2544   3.8187 H              1 <1>                0.0488
     27 H21         -2.5803   4.2844   6.2217 H              1 <1>                0.0575
     28 H22         -0.8433   4.4144   5.9397 H              1 <1>                0.0575
     29 HN2          0.9127   1.2524   2.6247 H              1 <1>                0.1503
     30 H31         -0.1503   1.0444   6.8697 H              1 <1>                0.0575
     31 H32          0.5517   2.5664   6.3707 H              1 <1>                0.0575
     32 HN3         -0.3323   0.7734   0.3447 H              1 <1>                0.1221
     33 H41          0.5497   1.0644   4.4827 H              1 <1>                0.0488
     34 H42         -1.1733   0.7204   4.6937 H              1 <1>                0.0488
     35 HO4          1.5387  -4.6136  -8.0993 H              1 <1>                0.2921
     36 HO5         -0.5513  -3.2446   0.5197 H              1 <1>                0.2100
     37 H61          2.3617   2.9174   1.1477 H              1 <1>                0.0475
     38 H62          0.8167   3.1754   0.3787 H              1 <1>                0.0475
     39 H71          1.7677   1.5104  -0.9503 H              1 <1>                0.0439
     40 H72          2.5437   0.7234   0.3887 H              1 <1>                0.0439
     41 H81          1.3317  -0.7746  -1.4703 H              1 <1>                0.0450
     42 H82         -0.1613   0.0694  -1.8123 H              1 <1>                0.0450
     43 H9          -1.4923  -1.5796  -0.7733 H              1 <1>                0.0640
     44 H101         0.8577  -3.0316  -2.0263 H              1 <1>                0.0723
     45 H102        -0.8113  -3.6696  -1.8263 H              1 <1>                0.0723
     46 H12         -1.1333  -0.9656  -5.3993 H              1 <1>                0.0655
     47 H13         -0.4243  -1.6766  -7.6453 H              1 <1>                0.0655
     48 H15          1.5957  -5.0266  -5.9463 H              1 <1>                0.0655
     49 H16          0.9027  -4.3196  -3.7033 H              1 <1>                0.0655
     50 ****        -2.2726   1.9881   6.6005 LP             1 <1>                0.0000
     51 ****        -1.3709   2.8838   7.6259 LP             1 <1>                0.0000
     52 ****        -1.0075   4.7032   2.6830 LP             1 <1>                0.0000
     53 ****         0.1164   4.3506   1.4131 LP             1 <1>                0.0000
     54 ****         0.7150  -0.4016   0.8919 LP             1 <1>                0.0000
     55 ****        -0.2863  -1.1712  -3.1112 LP             1 <1>                0.0000
     56 ****        -1.5978  -2.1393  -3.2081 LP             1 <1>                0.0000
     57 ****         1.5759  -3.0957  -8.6040 LP             1 <1>                0.0000
     58 ****         0.2141  -3.9864  -8.7413 LP             1 <1>                0.0000
     59 ****        -0.2192  -1.8144   1.1571 LP             1 <1>                0.0000
     60 ****         0.9304  -2.6597   0.3631 LP             1 <1>                0.0000
@<TRIPOS>BOND
    1    1    2 1     
    2    1    4 1     
    3    1   25 1     
    4    1   26 1     
    5    2   10 1     
    6    2   12 am    
    7    3    4 1     
    8    3    7 1     
    9    4   27 1     
   10    4   28 1     
   11    5   12 am    
   12    5   14 1     
   13    5   29 1     
   14    6   12 2     
   15    7   10 1     
   16    7   30 1     
   17    7   31 1     
   18    8   16 1     
   19    8   15 1     
   20    8   32 1     
   21    9   18 1     
   22    9   19 1     
   23   10   33 1     
   24   10   34 1     
   25   11   22 1     
   26   11   35 1     
   27   13   17 1     
   28   13   36 1     
   29   14   15 1     
   30   14   37 1     
   31   14   38 1     
   32   15   39 1     
   33   15   40 1     
   34   16   17 1     
   35   16   41 1     
   36   16   42 1     
   37   17   18 1     
   38   17   43 1     
   39   18   44 1     
   40   18   45 1     
   41   19   20 ar    
   42   19   24 ar    
   43   20   21 ar    
   44   20   46 1     
   45   21   22 ar    
   46   21   47 1     
   47   22   23 ar    
   48   23   24 ar    
   49   23   48 1     
   50   24   49 1     
   51    3   50 1     
   52    3   51 1     
   53    6   52 1     
   54    6   53 1     
   55    8   54 1     
   56    9   55 1     
   57    9   56 1     
   58   11   57 1     
   59   11   58 1     
   60   13   59 1     
   61   13   60 1     
@<TRIPOS>SUBSTRUCTURE
      1 ****           1
@<TRIPOS>SET
LONE_PAIRS      STATIC     ATOMS    <user>   **** ""
11 50 51 52 53 54 55 56 57 58 59 60
DONOR_HYDROGENS      STATIC     ATOMS    <user>   **** ""
4 29 32 35 36
ATOM$BLUE        STATIC     ATOMS    COLORGROUP SYSTEM
11 50 51 52 53 54 55 56 57 58 59 60
ATOM$RED        STATIC     ATOMS    COLORGROUP SYSTEM
4 29 32 35 36
