#       Name:                C:\Users\porto\OneDrive\projekt\beta1\ligandy\L_6h7j.pdb L_6h7j.pdb 1
#       Creating user name   student
#       Creation time:       Mon Apr 08 15:34:36 2019


#       File generated by GOLD software.
#

@<TRIPOS>MOLECULE
C:\Users\porto\OneDrive\projekt\beta1\ligandy\L_6h7j.pdb L_6h7j.pdb 1|6h7j|mol2|1|dock8
    39    39     1
SMALL
GASTEIGER


@<TRIPOS>ATOM
      1 CAE        -23.8349   8.5784  16.3071 C.3            1 <1>                0.0927
      2 CAF        -22.6624   8.8586  17.2551 C.3            1 <1>                0.0263
      3 CAG        -23.2944  10.0845  19.2914 C.3            1 <1>                0.0021
      4 CAH        -23.8198   7.1073  15.8700 C.ar           1 <1>               -0.0143
      5 CAI        -23.7769   9.8823  20.7350 C.3            1 <1>               -0.0499
      6 CAJ        -22.0324  10.9631  19.2603 C.3            1 <1>               -0.0499
      7 CAK        -23.5767   6.7953  14.5309 C.ar           1 <1>               -0.0109
      8 CAL        -24.0508   6.0738  16.7824 C.ar           1 <1>               -0.0524
      9 CAM        -23.5449   5.4684  14.1042 C.ar           1 <1>                0.1586
     10 CAN        -24.0344   4.7461  16.3594 C.ar           1 <1>               -0.0162
     11 CAO        -23.7811   4.4466  15.0229 C.ar           1 <1>                0.1582
     12 NAD        -23.0979   8.7564  18.6662 N.3            1 <1>               -0.3110
     13 OAA        -25.0469   8.9073  16.9790 O.3            1 <1>               -0.3859
     14 OAB        -23.2982   5.1735  12.7984 O.3            1 <1>               -0.5033
     15 OAC        -23.7670   3.1573  14.6205 O.3            1 <1>               -0.5033
     16 HAE        -23.7359   9.2112  15.4245 H              1 <1>                0.0656
     17 HAF1       -22.2744   9.8593  17.0669 H              1 <1>                0.0453
     18 HAF2       -21.8650   8.1393  17.0685 H              1 <1>                0.0453
     19 HAG        -24.0803  10.6027  18.7423 H              1 <1>                0.0455
     20 HAI1       -24.6704   9.2576  20.7362 H              1 <1>                0.0245
     21 HAI2       -22.9938   9.3953  21.3159 H              1 <1>                0.0245
     22 HAI3       -24.0094  10.8500  21.1793 H              1 <1>                0.0245
     23 HAJ1       -22.2444  11.9215  19.7336 H              1 <1>                0.0245
     24 HAJ2       -21.2275  10.4623  19.7980 H              1 <1>                0.0245
     25 HAJ3       -21.7298  11.1288  18.2264 H              1 <1>                0.0245
     26 HAK        -23.4108   7.5854  13.8144 H              1 <1>                0.0659
     27 HAL        -24.2433   6.3021  17.8205 H              1 <1>                0.0622
     28 HAN        -24.2174   3.9511  17.0672 H              1 <1>                0.0655
     29 HNAD       -23.9741   8.2559  18.7127 H              1 <1>                0.1223
     30 HOAA       -25.0684   8.4711  17.8334 H              1 <1>                0.2103
     31 HOAB       -23.6666   4.3122  12.5898 H              1 <1>                0.2923
     32 HOAC       -23.6661   2.5844  15.3838 H              1 <1>                0.2923
     33 ****       -22.3755   8.2750  19.1626 LP             1 <1>                0.0000
     34 ****       -25.8253   8.6030  16.4299 LP             1 <1>                0.0000
     35 ****       -25.0976   9.8975  17.1090 LP             1 <1>                0.0000
     36 ****       -22.3108   5.1608  12.6404 LP             1 <1>                0.0000
     37 ****       -23.7203   5.8670  12.2146 LP             1 <1>                0.0000
     38 ****       -23.0026   3.0128  13.9921 LP             1 <1>                0.0000
     39 ****       -24.6260   2.9442  14.1550 LP             1 <1>                0.0000
@<TRIPOS>BOND
    1    1    4 1     
    2    1   13 1     
    3    1    2 1     
    4    1   16 1     
    5    2   12 1     
    6    2   17 1     
    7    2   18 1     
    8    3    6 1     
    9    3   12 1     
   10    3    5 1     
   11    3   19 1     
   12    4    7 ar    
   13    4    8 ar    
   14    5   20 1     
   15    5   21 1     
   16    5   22 1     
   17    6   23 1     
   18    6   24 1     
   19    6   25 1     
   20    7    9 ar    
   21    7   26 1     
   22    8   10 ar    
   23    8   27 1     
   24    9   14 1     
   25    9   11 ar    
   26   10   11 ar    
   27   10   28 1     
   28   11   15 1     
   29   12   29 1     
   30   13   30 1     
   31   14   31 1     
   32   15   32 1     
   33   12   33 1     
   34   13   34 1     
   35   13   35 1     
   36   14   36 1     
   37   14   37 1     
   38   15   38 1     
   39   15   39 1     
@<TRIPOS>SUBSTRUCTURE
      1 ****           1
@<TRIPOS>SET
LONE_PAIRS      STATIC     ATOMS    <user>   **** ""
7 33 34 35 36 37 38 39
DONOR_HYDROGENS      STATIC     ATOMS    <user>   **** ""
4 29 30 31 32
ATOM$BLUE        STATIC     ATOMS    COLORGROUP SYSTEM
7 33 34 35 36 37 38 39
ATOM$RED        STATIC     ATOMS    COLORGROUP SYSTEM
4 29 30 31 32
@<TRIPOS>COMMENT
> <Gold.Version>
5.5

> <Gold.Id.Protein>
unknown|bialko_beta1|pdb

> <Gold.Protein.ActiveResidues>
 ALA86   ASP87   VAL90   VAL94   VAL95   GLY98   ALA99   LEU101  VAL102  CYS114 
 GLU115  TRP117  THR118  SER119  LEU120  ASP121  VAL122  CYS124  VAL125  THR126 
 SER128  SER173  PHE174  ILE177  CYS199  ASP200  PHE201  TYR207  SER215  PHE299 
 TRP303  PHE306  PHE307  ASN310  PHE325  VAL326  ASN329  TRP330  GLY332  TYR333 
 SER336 

> <Gold.Score>
     Score         DG    S(hbond)    S(metal)    S(lipo)     H(rot)  DE(clash)    DE(int)     intcor
     20.69     -21.56       1.97        0.00     154.11       3.33       0.03       0.84       0.00

> <Gold.Chemscore.Fitness>
20.6923

> <Gold.Chemscore.DG>
-21.5583

> <Gold.Chemscore.ZeroCoef>
-5.4800

> <Gold.Chemscore.Hbond>
1.9672

> <Gold.Chemscore.Metal>
0.0000

> <Gold.Chemscore.Lipo>
154.1079

> <Gold.Chemscore.Internal_Hbond>
0.0000

> <Gold.Chemscore.DEClash>
0.0285

> <Gold.Chemscore.DEInternal>
0.8375

> <Gold.Chemscore.Rot>
3.3292

> <Gold.Chemscore.Internal.Correction>
0.0039

> <Gold.Chemscore.Hbonds>
donor molecule, donor type, donor heavy atom, donor atom, acceptor molecule, acceptor atom, score
      L1  H    12    29       P1  2066  0.97
      L1  H    13    30       P1  2066  0.99

> <Gold.Chemscore.Hbond.Weighted>
-6.5704

> <Gold.Chemscore.Metal.Weighted>
-0.0000

> <Gold.Chemscore.Lipo.Weighted>
-18.0306

> <Gold.Chemscore.Internal_Hbond.Weighted>
0.0000

> <Gold.Chemscore.DEClash.Weighted>
0.0285

> <Gold.Chemscore.DEInternal.Weighted>
0.8375

> <Gold.Chemscore.Rot.Weighted>
8.5227

> <Gold.Chemscore.Internal.Correction.Weighted>
0.0039

