#       Name:                *****
#       Creating user name   student
#       Creation time:       Mon Mar 18 16:40:38 2019


#       File generated by GOLD software.
#

@<TRIPOS>MOLECULE
*****
    32    34     1
SMALL
GASTEIGER


@<TRIPOS>ATOM
      1 C           -1.8657   1.1987   4.6110 C.3            1 <1>                0.0788
      2 O           -2.1236   0.1383   3.6935 O.3            1 <1>               -0.4950
      3 C           -1.4896   0.2703   2.4829 C.ar           1 <1>                0.1221
      4 C           -1.2423   1.4976   1.8678 C.ar           1 <1>               -0.0193
      5 C           -0.5774   1.5602   0.6399 C.ar           1 <1>               -0.0489
      6 C           -0.1690   0.3690   0.0170 C.ar           1 <1>                0.0034
      7 C            0.5126   0.0789  -1.1904 C.ar           1 <1>               -0.0167
      8 C            1.0174   0.9786  -2.2608 C.3            1 <1>               -0.0128
      9 C            1.8344   0.1794  -3.3062 C.3            1 <1>                0.0003
     10 N            1.2756  -1.1540  -3.6181 N.3            1 <1>               -0.3103
     11 C            1.2422  -2.0219  -2.4268 C.3            1 <1>                0.0367
     12 C            0.6068  -1.2919  -1.2994 C.ar           1 <1>                0.0342
     13 N            0.0211  -1.8511  -0.1979 N.pl3          1 <1>               -0.3566
     14 H           -0.0696  -2.8409  -0.0149 H              1 <1>                0.1656
     15 C           -0.4584  -0.8532   0.6287 C.ar           1 <1>                0.0504
     16 C           -1.1292  -0.9308   1.8572 C.ar           1 <1>                0.0040
     17 H           -2.2850   0.9159   5.5805 H              1 <1>                0.0660
     18 H           -2.3586   2.1257   4.3014 H              1 <1>                0.0660
     19 H           -0.7883   1.3526   4.7408 H              1 <1>                0.0660
     20 H           -1.5706   2.4313   2.3102 H              1 <1>                0.0654
     21 H           -0.3878   2.5203   0.1700 H              1 <1>                0.0625
     22 H            1.6476   1.7648  -1.8282 H              1 <1>                0.0326
     23 H            0.1645   1.4628  -2.7494 H              1 <1>                0.0326
     24 H            2.8676   0.0610  -2.9551 H              1 <1>                0.0427
     25 H            1.8839   0.7683  -4.2294 H              1 <1>                0.0427
     26 H            1.8472  -1.5998  -4.3317 H              1 <1>                0.1223
     27 H            2.2627  -2.3138  -2.1514 H              1 <1>                0.0488
     28 H            0.6825  -2.9320  -2.6633 H              1 <1>                0.0488
     29 H           -1.3519  -1.8850   2.3229 H              1 <1>                0.0675
     30 ****        -3.1091   0.1003   3.5281 LP             1 <1>                0.0000
     31 ****        -1.8226  -0.7183   4.1126 LP             1 <1>                0.0000
     32 ****         0.3384  -1.0258  -3.9425 LP             1 <1>                0.0000
@<TRIPOS>BOND
    1    1    2 1     
    2    2    3 1     
    3    3    4 ar    
    4    4    5 ar    
    5    5    6 ar    
    6    6    7 ar    
    7    7    8 1     
    8    8    9 1     
    9    9   10 1     
   10   10   11 1     
   11   11   12 1     
   12    7   12 ar    
   13   12   13 ar    
   14   13   14 1     
   15   13   15 ar    
   16    6   15 ar    
   17   15   16 ar    
   18    3   16 ar    
   19    1   17 1     
   20    1   18 1     
   21    1   19 1     
   22    4   20 1     
   23    5   21 1     
   24    8   22 1     
   25    8   23 1     
   26    9   24 1     
   27    9   25 1     
   28   10   26 1     
   29   11   27 1     
   30   11   28 1     
   31   16   29 1     
   32    2   30 1     
   33    2   31 1     
   34   10   32 1     
@<TRIPOS>SUBSTRUCTURE
      1 ****           1
@<TRIPOS>SET
LONE_PAIRS      STATIC     ATOMS    <user>   **** ""
3 30 31 32
DONOR_HYDROGENS      STATIC     ATOMS    <user>   **** ""
2 26 14
ATOM$BLUE        STATIC     ATOMS    COLORGROUP SYSTEM
3 30 31 32
ATOM$RED        STATIC     ATOMS    COLORGROUP SYSTEM
2 26 14
