#       Name:                *****
#       Creating user name   student
#       Creation time:       Mon Mar 18 16:40:50 2019


#       File generated by GOLD software.
#

@<TRIPOS>MOLECULE
*****|CHEMBL93240|mol2|1|dock4
    50    53     1
SMALL
GASTEIGER


@<TRIPOS>ATOM
      1 C          -40.3075   4.9704   4.4527 C.3            1 <1>               -0.0135
      2 S          -39.0305   4.6880   3.2020 S.3            1 <1>               -0.1286
      3 C          -38.0461   6.1716   3.3348 C.ar           1 <1>                0.0080
      4 C          -37.6866   6.9421   2.2270 C.ar           1 <1>               -0.0473
      5 C          -37.0351   8.1654   2.4073 C.ar           1 <1>               -0.0466
      6 C          -36.7816   8.6659   3.6909 C.ar           1 <1>                0.0175
      7 S          -36.0584  10.2873   3.8037 S.3            1 <1>               -0.0888
      8 C          -34.6621  10.1401   4.9189 C.ar           1 <1>                0.0160
      9 C          -33.6284  11.0533   4.6188 C.ar           1 <1>               -0.0477
     10 C          -32.4607  11.1255   5.3780 C.ar           1 <1>               -0.0607
     11 C          -32.2971  10.2794   6.4614 C.ar           1 <1>               -0.0614
     12 C          -33.3091   9.3785   6.7860 C.ar           1 <1>               -0.0575
     13 C          -34.5144   9.3034   6.0440 C.ar           1 <1>               -0.0318
     14 C          -35.5268   8.2950   6.5707 C.3            1 <1>               -0.0068
     15 C          -37.0110   8.5452   6.2028 C.3            1 <1>                0.0408
     16 N          -37.9700   8.1189   7.2778 N.3            1 <1>               -0.2927
     17 C          -38.0609   9.1820   8.3295 C.3            1 <1>                0.0123
     18 C          -38.7227  10.5104   7.8630 C.3            1 <1>                0.0114
     19 N          -40.0613  10.3543   7.2701 N.3            1 <1>               -0.3029
     20 C          -41.0691  10.1699   8.3122 C.3            1 <1>               -0.0127
     21 C          -40.0705   9.2367   6.3049 C.3            1 <1>                0.0114
     22 C          -39.3679   7.9462   6.7909 C.3            1 <1>                0.0123
     23 C          -37.1970   7.9345   4.8149 C.ar           1 <1>               -0.0152
     24 C          -37.7535   6.6524   4.6189 C.ar           1 <1>               -0.0426
     25 H          -40.9954   4.1200   4.4402 H              1 <1>                0.0344
     26 H          -40.8720   5.8763   4.2196 H              1 <1>                0.0344
     27 H          -39.8833   5.0443   5.4566 H              1 <1>                0.0344
     28 H          -37.9356   6.6310   1.2186 H              1 <1>                0.0629
     29 H          -36.7674   8.7523   1.5302 H              1 <1>                0.0629
     30 H          -33.7290  11.7363   3.7759 H              1 <1>                0.0629
     31 H          -31.6868  11.8424   5.1184 H              1 <1>                0.0618
     32 H          -31.3907  10.3231   7.0592 H              1 <1>                0.0618
     33 H          -33.1598   8.7304   7.6496 H              1 <1>                0.0621
     34 H          -35.4163   8.2989   7.6603 H              1 <1>                0.0332
     35 H          -35.2056   7.2901   6.2625 H              1 <1>                0.0332
     36 H          -37.1724   9.6155   6.0880 H              1 <1>                0.0516
     37 H          -37.0837   9.4091   8.7639 H              1 <1>                0.0439
     38 H          -38.6383   8.7748   9.1700 H              1 <1>                0.0439
     39 H          -38.0808  11.0083   7.1243 H              1 <1>                0.0439
     40 H          -38.7551  11.2147   8.7032 H              1 <1>                0.0439
     41 H          -41.0638  11.0246   8.9972 H              1 <1>                0.0391
     42 H          -40.9193   9.2600   8.9009 H              1 <1>                0.0391
     43 H          -42.0734  10.1319   7.8707 H              1 <1>                0.0391
     44 H          -39.5879   9.5768   5.3800 H              1 <1>                0.0439
     45 H          -41.1014   8.9952   6.0164 H              1 <1>                0.0439
     46 H          -39.4409   7.1897   6.0064 H              1 <1>                0.0439
     47 H          -39.9513   7.5155   7.6167 H              1 <1>                0.0439
     48 H          -38.0217   6.0504   5.4850 H              1 <1>                0.0632
     49 ****       -37.6124   7.2482   7.6154 LP             1 <1>                0.0000
     50 ****       -40.2910  11.1908   6.7727 LP             1 <1>                0.0000
@<TRIPOS>BOND
    1    1    2 1     
    2    2    3 1     
    3    3    4 ar    
    4    4    5 ar    
    5    5    6 ar    
    6    6    7 1     
    7    7    8 1     
    8    8    9 ar    
    9    9   10 ar    
   10   10   11 ar    
   11   11   12 ar    
   12   12   13 ar    
   13    8   13 ar    
   14   13   14 1     
   15   14   15 1     
   16   15   16 1     
   17   16   17 1     
   18   17   18 1     
   19   18   19 1     
   20   19   20 1     
   21   19   21 1     
   22   21   22 1     
   23   16   22 1     
   24   15   23 1     
   25    6   23 ar    
   26   23   24 ar    
   27    3   24 ar    
   28    1   25 1     
   29    1   26 1     
   30    1   27 1     
   31    4   28 1     
   32    5   29 1     
   33    9   30 1     
   34   10   31 1     
   35   11   32 1     
   36   12   33 1     
   37   14   34 1     
   38   14   35 1     
   39   15   36 1     
   40   17   37 1     
   41   17   38 1     
   42   18   39 1     
   43   18   40 1     
   44   20   41 1     
   45   20   42 1     
   46   20   43 1     
   47   21   44 1     
   48   21   45 1     
   49   22   46 1     
   50   22   47 1     
   51   24   48 1     
   52   16   49 1     
   53   19   50 1     
@<TRIPOS>SUBSTRUCTURE
      1 ****           1
@<TRIPOS>SET
LONE_PAIRS      STATIC     ATOMS    <user>   **** ""
2 49 50
ATOM$BLUE        STATIC     ATOMS    COLORGROUP SYSTEM
2 49 50
@<TRIPOS>COMMENT
> <Gold.Version>
5.5

> <Gold.Id.Protein>
ID|ID_protein|mol2

> <Gold.Protein.ActiveResidues>
 LEU18   LEU52   SER53   ALA55   VAL56   ALA57   MET59   PRO60   PHE61   VAL62  
 SER63   VAL64   LEU67   TRP72   PHE78   CYS79   VAL81   PHE82   ILE83   ALA84  
 MET85   ASP86   VAL87   MET88   CYS89   CYS90   SER93   TRP131  THR138  LEU139 
 LEU142  PHE161  GLU222  GLU225  LEU229  LYS248  THR251  THR252  GLY254  ILE255 

> <Gold.Score>
     Score     S(PLP)   S(hbond)     S(cho)   S(metal)  DE(clash)   DE(tors)     intcor
     58.70     -59.87       0.00       0.00       0.00       0.01       0.60       0.04

> <Gold.PLP.Fitness>
58.7011

> <Gold.PLP.PLP>
-59.8685

> <Gold.PLP.part.hbond>
0.0000

> <Gold.PLP.part.metal>
0.0000

> <Gold.PLP.part.buried>
-0.2420

> <Gold.PLP.part.nonpolar>
-61.0995

> <Gold.PLP.part.repulsive>
0.0639

> <Gold.PLP.ligand.clash>
0.0128

> <Gold.PLP.ligand.torsion>
0.5961

> <Gold.PLP.Chemscore.Hbond>
0.0000

> <Gold.PLP.Chemscore.CHOScore>
0.0000

> <Gold.PLP.Chemscore.Metal>
0.0000

> <Gold.PLP.Chemscore.Internal.Correction>
0.0374

