#       Name:                *****
#       Creating user name   student
#       Creation time:       Mon Mar 18 16:40:43 2019


#       File generated by GOLD software.
#

@<TRIPOS>MOLECULE
*****
    50    53     1
SMALL
GASTEIGER


@<TRIPOS>ATOM
      1 C           -5.3206   3.1456  -1.0885 C.3            1 <1>               -0.0135
      2 S           -3.5343   3.4344  -1.0661 S.3            1 <1>               -0.1286
      3 C           -2.8893   1.7697  -1.0415 C.ar           1 <1>                0.0080
      4 C           -3.3460   0.7691  -1.9021 C.ar           1 <1>               -0.0473
      5 C           -2.7074  -0.4737  -1.9312 C.ar           1 <1>               -0.0466
      6 C           -1.5732  -0.7211  -1.1471 C.ar           1 <1>                0.0175
      7 S           -0.7683  -2.2940  -1.3541 S.3            1 <1>               -0.0888
      8 C           -0.5444  -2.9664   0.2929 C.ar           1 <1>                0.0160
      9 C           -0.5709  -4.3775   0.3120 C.ar           1 <1>               -0.0477
     10 C           -0.3905  -5.1057   1.4877 C.ar           1 <1>               -0.0607
     11 C           -0.1796  -4.4355   2.6805 C.ar           1 <1>               -0.0614
     12 C           -0.1357  -3.0430   2.6854 C.ar           1 <1>               -0.0575
     13 C           -0.2924  -2.2823   1.4997 C.ar           1 <1>               -0.0318
     14 C           -0.1680  -0.7760   1.6862 C.3            1 <1>               -0.0068
     15 C            0.2372   0.0466   0.4372 C.3            1 <1>                0.0408
     16 N            1.0870   1.2419   0.7626 N.3            1 <1>               -0.2927
     17 C            2.4402   0.7939   1.2240 C.3            1 <1>                0.0123
     18 C            3.3114   0.1094   0.1319 C.3            1 <1>                0.0114
     19 N            3.4990   0.9057  -1.0922 N.3            1 <1>               -0.3029
     20 C            4.5045   1.9452  -0.8828 C.3            1 <1>               -0.0127
     21 C            2.2126   1.4791  -1.5363 C.3            1 <1>                0.0114
     22 C            1.3573   2.1154  -0.4143 C.3            1 <1>                0.0123
     23 C           -1.0618   0.2970  -0.3268 C.ar           1 <1>               -0.0152
     24 C           -1.7803   1.5075  -0.2248 C.ar           1 <1>               -0.0426
     25 H           -5.8261   4.1156  -1.0773 H              1 <1>                0.0344
     26 H           -5.6249   2.5859  -0.2010 H              1 <1>                0.0344
     27 H           -5.6346   2.6138  -1.9896 H              1 <1>                0.0344
     28 H           -4.1701   0.9447  -2.5844 H              1 <1>                0.0629
     29 H           -3.0770  -1.2384  -2.6125 H              1 <1>                0.0629
     30 H           -0.7294  -4.9345  -0.6109 H              1 <1>                0.0629
     31 H           -0.4154  -6.1916   1.4641 H              1 <1>                0.0618
     32 H           -0.0409  -4.9907   3.6043 H              1 <1>                0.0618
     33 H            0.0416  -2.5398   3.6359 H              1 <1>                0.0621
     34 H            0.5778  -0.6311   2.4750 H              1 <1>                0.0332
     35 H           -1.1067  -0.4031   2.1195 H              1 <1>                0.0332
     36 H            0.8558  -0.5726  -0.2099 H              1 <1>                0.0516
     37 H            2.3754   0.1298   2.0900 H              1 <1>                0.0439
     38 H            2.9749   1.6749   1.6028 H              1 <1>                0.0439
     39 H            2.8646  -0.8519  -0.1542 H              1 <1>                0.0439
     40 H            4.2818  -0.1671   0.5620 H              1 <1>                0.0439
     41 H            5.4567   1.4938  -0.5840 H              1 <1>                0.0391
     42 H            4.2183   2.6746  -0.1192 H              1 <1>                0.0391
     43 H            4.6970   2.4854  -1.8188 H              1 <1>                0.0391
     44 H            1.6301   0.6845  -2.0193 H              1 <1>                0.0439
     45 H            2.3831   2.2256  -2.3224 H              1 <1>                0.0439
     46 H            0.4390   2.5108  -0.8540 H              1 <1>                0.0439
     47 H            1.8712   3.0136  -0.0442 H              1 <1>                0.0439
     48 H           -1.4275   2.2802   0.4555 H              1 <1>                0.0632
     49 ****         0.5721   1.7466   1.4556 LP             1 <1>                0.0000
     50 ****         3.8332   0.3042  -1.8178 LP             1 <1>                0.0000
@<TRIPOS>BOND
    1    1    2 1     
    2    2    3 1     
    3    3    4 ar    
    4    4    5 ar    
    5    5    6 ar    
    6    6    7 1     
    7    7    8 1     
    8    8    9 ar    
    9    9   10 ar    
   10   10   11 ar    
   11   11   12 ar    
   12   12   13 ar    
   13    8   13 ar    
   14   13   14 1     
   15   14   15 1     
   16   15   16 1     
   17   16   17 1     
   18   17   18 1     
   19   18   19 1     
   20   19   20 1     
   21   19   21 1     
   22   21   22 1     
   23   16   22 1     
   24   15   23 1     
   25    6   23 ar    
   26   23   24 ar    
   27    3   24 ar    
   28    1   25 1     
   29    1   26 1     
   30    1   27 1     
   31    4   28 1     
   32    5   29 1     
   33    9   30 1     
   34   10   31 1     
   35   11   32 1     
   36   12   33 1     
   37   14   34 1     
   38   14   35 1     
   39   15   36 1     
   40   17   37 1     
   41   17   38 1     
   42   18   39 1     
   43   18   40 1     
   44   20   41 1     
   45   20   42 1     
   46   20   43 1     
   47   21   44 1     
   48   21   45 1     
   49   22   46 1     
   50   22   47 1     
   51   24   48 1     
   52   16   49 1     
   53   19   50 1     
@<TRIPOS>SUBSTRUCTURE
      1 ****           1
@<TRIPOS>SET
LONE_PAIRS      STATIC     ATOMS    <user>   **** ""
2 49 50
ATOM$BLUE        STATIC     ATOMS    COLORGROUP SYSTEM
2 49 50
