#       Name:                C:\Users\porto\OneDrive\projekt\beta1\ligandy\L_4bvn.pdb L_4bvn.pdb 1
#       Creating user name   student
#       Creation time:       Wed Apr 10 10:57:39 2019


#       File generated by GOLD software.
#

@<TRIPOS>MOLECULE
C:\Users\porto\OneDrive\projekt\beta1\ligandy\L_4bvn.pdb L_4bvn.pdb 1|4bvn|mol2|1|dock70
    48    49     1
SMALL
GASTEIGER


@<TRIPOS>ATOM
      1 C1         -23.6206  13.6699  19.4878 C.2            1 <1>                0.1822
      2 N1         -24.4635  14.4178  18.8113 N.1            1 <1>               -0.3633
      3 O1         -23.6639  10.4408  16.8439 O.3            1 <1>               -0.4884
      4 C2         -23.4310  12.5009  18.8345 C.3            1 <1>                0.0496
      5 N2         -23.0701   5.8145  15.9583 N.3            1 <1>               -0.3088
      6 O2         -23.2018   8.0819  17.9311 O.3            1 <1>               -0.3872
      7 C3         -24.1934  12.5269  17.7408 C.ar           1 <1>                0.0656
      8 N3         -22.2925  14.4329  21.8045 N.1            1 <1>               -0.1885
      9 C4         -24.3881  11.6215  16.7610 C.ar           1 <1>                0.1336
     10 C5         -25.2862  11.8979  15.7682 C.ar           1 <1>               -0.0184
     11 C6         -25.9854  13.1075  15.7386 C.ar           1 <1>               -0.0489
     12 C7         -25.7672  14.0049  16.7958 C.ar           1 <1>                0.0031
     13 C8         -24.8807  13.7097  17.7618 C.ar           1 <1>               -0.0070
     14 C9         -24.0914   9.3895  16.0890 C.3            1 <1>                0.1166
     15 C10        -23.2426   8.1790  16.4735 C.3            1 <1>                0.1015
     16 C11        -23.9200   7.0030  15.8399 C.3            1 <1>                0.0256
     17 C12        -23.7052   4.5692  15.3458 C.3            1 <1>                0.0108
     18 C13        -24.7995   3.9443  16.2719 C.3            1 <1>               -0.0473
     19 C14        -22.6174   3.4750  15.1179 C.3            1 <1>               -0.0473
     20 C15        -24.3669   4.8057  13.9771 C.3            1 <1>               -0.0473
     21 C16        -22.9216  14.0614  20.7379 C.1            1 <1>                0.1289
     22 H21        -23.7412  11.6742  19.4729 H              1 <1>                0.0403
     23 H22        -22.3843  12.4124  18.5448 H              1 <1>                0.0403
     24 HN2        -22.8965   5.6565  16.9408 H              1 <1>                0.1225
     25 HO2        -24.0850   7.9096  18.2658 H              1 <1>                0.2100
     26 H5         -25.4667  11.1745  14.9867 H              1 <1>                0.0654
     27 H6         -26.6618  13.3211  14.9234 H              1 <1>                0.0625
     28 H7         -26.3127  14.9360  16.8349 H              1 <1>                0.0725
     29 H91        -23.9422   9.6167  15.0334 H              1 <1>                0.0723
     30 H92        -25.1383   9.1838  16.3132 H              1 <1>                0.0723
     31 H10        -22.2329   8.2882  16.0769 H              1 <1>                0.0640
     32 H111       -24.8710   6.8197  16.3387 H              1 <1>                0.0451
     33 H112       -24.1040   7.2141  14.7866 H              1 <1>                0.0451
     34 H131       -25.1917   3.0374  15.8111 H              1 <1>                0.0247
     35 H132       -24.3610   3.6994  17.2393 H              1 <1>                0.0247
     36 H133       -25.6097   4.6593  16.4114 H              1 <1>                0.0247
     37 H141       -21.8479   3.8608  14.4486 H              1 <1>                0.0247
     38 H142       -22.1660   3.2066  16.0728 H              1 <1>                0.0247
     39 H143       -23.0771   2.5921  14.6728 H              1 <1>                0.0247
     40 H151       -25.2815   5.3842  14.1099 H              1 <1>                0.0247
     41 H152       -23.6810   5.3543  13.3315 H              1 <1>                0.0247
     42 H153       -24.6075   3.8466  13.5185 H              1 <1>                0.0247
     43 ****       -23.6755  10.1481  17.8000 LP             1 <1>                0.0000
     44 ****       -22.7243  10.6451  16.5692 LP             1 <1>                0.0000
     45 ****       -22.2227   5.9806  15.4540 LP             1 <1>                0.0000
     46 ****       -22.8628   8.9418  18.3130 LP             1 <1>                0.0000
     47 ****       -22.5926   7.3353  18.1985 LP             1 <1>                0.0000
     48 ****       -21.8058  14.7202  22.6295 LP             1 <1>                0.0000
@<TRIPOS>BOND
    1    1    4 1     
    2    1   21 1     
    3    1    2 2     
    4    2   13 2     
    5    3    9 1     
    6    3   14 1     
    7    4    7 1     
    8    4   22 1     
    9    4   23 1     
   10    5   17 1     
   11    5   16 1     
   12    5   24 1     
   13    6   15 1     
   14    6   25 1     
   15    7    9 ar    
   16    7   13 ar    
   17    8   21 3     
   18    9   10 ar    
   19   10   11 ar    
   20   10   26 1     
   21   11   12 ar    
   22   11   27 1     
   23   12   13 ar    
   24   12   28 1     
   25   14   15 1     
   26   14   29 1     
   27   14   30 1     
   28   15   16 1     
   29   15   31 1     
   30   16   32 1     
   31   16   33 1     
   32   17   18 1     
   33   17   19 1     
   34   17   20 1     
   35   18   34 1     
   36   18   35 1     
   37   18   36 1     
   38   19   37 1     
   39   19   38 1     
   40   19   39 1     
   41   20   40 1     
   42   20   41 1     
   43   20   42 1     
   44    3   43 1     
   45    3   44 1     
   46    5   45 1     
   47    6   46 1     
   48    6   47 1     
   49    8   48 1     
@<TRIPOS>SUBSTRUCTURE
      1 ****           1
@<TRIPOS>SET
LONE_PAIRS      STATIC     ATOMS    <user>   **** ""
6 43 44 45 46 47 48
DONOR_HYDROGENS      STATIC     ATOMS    <user>   **** ""
2 24 25
ATOM$BLUE        STATIC     ATOMS    COLORGROUP SYSTEM
6 43 44 45 46 47 48
ATOM$RED        STATIC     ATOMS    COLORGROUP SYSTEM
2 24 25
@<TRIPOS>COMMENT
> <Gold.Version>
5.6

> <Gold.Id.Protein>
unknown|bialko_beta1 1|pdb

> <Gold.Protein.ActiveResidues>
 ALA86   ASP87   VAL90   VAL94   VAL95   GLY98   ALA99   LEU101  VAL102  CYS114 
 GLU115  TRP117  THR118  SER119  LEU120  ASP121  VAL122  CYS124  VAL125  THR126 
 SER128  SER173  PHE174  ILE177  CYS199  ASP200  PHE201  TYR207  SER215  PHE299 
 TRP303  PHE306  PHE307  ASN310  PHE325  VAL326  ASN329  TRP330  GLY332  TYR333 
 SER336 

> <Gold.Score>
     Fitness  S(hb_ext) S(vdw_ext)  S(hb_int)    S(int)      intcor
     49.54       1.92      35.82       0.00      -1.62      -8.56

> <Gold.Goldscore.Fitness>
49.5417

> <Gold.Goldscore.Internal.Vdw>
-8.9028

> <Gold.Goldscore.Internal.Torsion>
-1.2758

> <Gold.Goldscore.External.Vdw>
35.8152

> <Gold.Goldscore.Internal.HBond>
0.0000

> <Gold.Goldscore.External.HBond>
1.9170

> <Gold.Goldscore.Internal.Correction>
-8.5573

> <Gold.Goldscore.Hbonds>
donor molecule, donor type, donor heavy atom, donor atom, acceptor molecule, acceptor atom, score
      L1  H     6    25       P1  2066  0.96

> <Gold.Goldscore.Internal.Vdw.Weighted>
-8.9028

> <Gold.Goldscore.Internal.Torsion.Weighted>
-1.2758

> <Gold.Goldscore.External.Vdw.Weighted>
49.2459

> <Gold.Goldscore.Internal.HBond.Weighted>
0.0000

> <Gold.Goldscore.External.HBond.Weighted>
1.9170

> <Gold.Goldscore.Internal.Correction.Weighted>
-8.5573

