#       Name:                C:\Users\porto\OneDrive\projekt\beta1\ligandy\L_2y02.pdb L_2y02.pdb 1
#       Creating user name   mateusz
#       Creation time:       Wed Apr  3 10:13:56 2019


#       File generated by GOLD software.
#

@<TRIPOS>MOLECULE
C:\Users\porto\OneDrive\projekt\beta1\ligandy\L_2y02.pdb L_2y02.pdb 1|2y02|mol2|1|dock5
    60    62     1
SMALL
GASTEIGER


@<TRIPOS>ATOM
      1 C1         -23.5909  10.7240  23.0048 C.ar           1 <1>               -0.0471
      2 N1         -24.8211  13.2380  23.3629 N.am           1 <1>               -0.3192
      3 O1         -24.7500  12.8661  25.5752 O.2            1 <1>               -0.2679
      4 C2         -23.9157  11.4922  21.8926 C.ar           1 <1>                0.0078
      5 N2         -23.0995   8.1000  18.3383 N.3            1 <1>               -0.3104
      6 O2         -25.4983  14.8289  21.1747 O.3            1 <1>               -0.5047
      7 C3         -23.6415  11.0746  20.4784 C.ar           1 <1>               -0.0086
      8 O3         -23.1584   2.5917  13.2214 O.3            1 <1>               -0.4951
      9 C4         -24.0131  11.9569  19.4420 C.ar           1 <1>               -0.0519
     10 O4         -23.6984   8.6769  20.7702 O.3            1 <1>               -0.3859
     11 C5         -24.6184  13.1918  19.6586 C.ar           1 <1>               -0.0178
     12 C6         -24.8953  13.6426  20.9508 C.ar           1 <1>                0.1407
     13 C7         -24.5557  12.8153  22.1231 C.ar           1 <1>                0.0915
     14 C8         -23.8885  11.2207  24.2718 C.ar           1 <1>                0.0034
     15 C9         -24.4988  12.4671  24.4212 C.ar           1 <1>                0.2493
     16 C10        -22.9814   9.7672  20.1715 C.3            1 <1>                0.0932
     17 C11        -22.9979   9.5213  18.6646 C.3            1 <1>                0.0264
     18 C12        -22.5950   7.5794  17.0649 C.3            1 <1>                0.0089
     19 C13        -21.4232   8.3889  16.4994 C.3            1 <1>               -0.0494
     20 C14        -23.7145   7.5000  16.0272 C.3            1 <1>               -0.0125
     21 C15        -23.5573   6.2018  15.2706 C.ar           1 <1>               -0.0457
     22 C16        -23.5565   5.0010  15.9735 C.ar           1 <1>               -0.0551
     23 C17        -23.4268   3.7936  15.2890 C.ar           1 <1>               -0.0197
     24 C18        -23.2951   3.7887  13.8976 C.ar           1 <1>                0.1201
     25 C19        -23.2982   4.9964  13.1932 C.ar           1 <1>               -0.0197
     26 C20        -23.4241   6.2013  13.8775 C.ar           1 <1>               -0.0551
     27 C21        -22.9066   2.5659  11.8104 C.3            1 <1>                0.0788
     28 H1         -23.1177   9.7621  22.8771 H              1 <1>                0.0626
     29 HN1        -25.2627  14.1347  23.5064 H              1 <1>                0.1690
     30 HN2        -24.0892   7.9135  18.4104 H              1 <1>                0.1223
     31 HO2        -26.4501  14.7068  21.1893 H              1 <1>                0.2922
     32 H4         -23.8305  11.6869  18.4123 H              1 <1>                0.0622
     33 HO4        -24.4559   8.4527  20.2244 H              1 <1>                0.2103
     34 H5         -24.8820  13.8192  18.8196 H              1 <1>                0.0655
     35 H8         -23.6467  10.6404  25.1501 H              1 <1>                0.0672
     36 H10        -21.9534   9.7771  20.5341 H              1 <1>                0.0656
     37 H111       -23.8365  10.0563  18.2186 H              1 <1>                0.0453
     38 H112       -22.0912   9.9312  18.2202 H              1 <1>                0.0453
     39 H12        -22.2385   6.5650  17.2423 H              1 <1>                0.0461
     40 H131       -21.0986   7.9490  15.5563 H              1 <1>                0.0245
     41 H132       -21.7397   9.4174  16.3301 H              1 <1>                0.0245
     42 H133       -20.5958   8.3759  17.2088 H              1 <1>                0.0245
     43 H141       -23.6272   8.3372  15.3345 H              1 <1>                0.0328
     44 H142       -24.6797   7.5104  16.5333 H              1 <1>                0.0328
     45 H16        -23.6560   5.0044  17.0492 H              1 <1>                0.0621
     46 H17        -23.4281   2.8613  15.8343 H              1 <1>                0.0654
     47 H19        -23.2027   4.9946  12.1174 H              1 <1>                0.0654
     48 H20        -23.4190   7.1354  13.3351 H              1 <1>                0.0621
     49 H211       -22.8327   1.5322  11.4725 H              1 <1>                0.0660
     50 H212       -23.7236   3.0612  11.2856 H              1 <1>                0.0660
     51 H213       -21.9721   3.0845  11.5978 H              1 <1>                0.0660
     52 ****       -25.1886  13.7542  25.7127 LP             1 <1>                0.0000
     53 ****       -24.5129  12.2981  26.3633 LP             1 <1>                0.0000
     54 ****       -22.4807   7.6276  18.9659 LP             1 <1>                0.0000
     55 ****       -25.2556  15.4689  20.4456 LP             1 <1>                0.0000
     56 ****       -25.1958  15.1956  22.0545 LP             1 <1>                0.0000
     57 ****       -22.3997   2.1053  13.6546 LP             1 <1>                0.0000
     58 ****       -24.0072   2.0836  13.3681 LP             1 <1>                0.0000
     59 ****       -24.0119   8.9447  21.6813 LP             1 <1>                0.0000
     60 ****       -23.0952   7.8829  20.8453 LP             1 <1>                0.0000
@<TRIPOS>BOND
    1    1    4 ar    
    2    1   14 ar    
    3    1   28 1     
    4    2   13 ar    
    5    2   15 am    
    6    2   29 1     
    7    3   15 2     
    8    4    7 ar    
    9    4   13 ar    
   10    5   18 1     
   11    5   17 1     
   12    5   30 1     
   13    6   12 1     
   14    6   31 1     
   15    7   16 1     
   16    7    9 ar    
   17    8   27 1     
   18    8   24 1     
   19    9   11 ar    
   20    9   32 1     
   21   10   16 1     
   22   10   33 1     
   23   11   12 ar    
   24   11   34 1     
   25   12   13 ar    
   26   14   15 ar    
   27   14   35 1     
   28   16   17 1     
   29   16   36 1     
   30   17   37 1     
   31   17   38 1     
   32   18   19 1     
   33   18   20 1     
   34   18   39 1     
   35   19   40 1     
   36   19   41 1     
   37   19   42 1     
   38   20   21 1     
   39   20   43 1     
   40   20   44 1     
   41   21   22 ar    
   42   21   26 ar    
   43   22   23 ar    
   44   22   45 1     
   45   23   24 ar    
   46   23   46 1     
   47   24   25 ar    
   48   25   26 ar    
   49   25   47 1     
   50   26   48 1     
   51   27   49 1     
   52   27   50 1     
   53   27   51 1     
   54    3   52 1     
   55    3   53 1     
   56    5   54 1     
   57    6   55 1     
   58    6   56 1     
   59    8   57 1     
   60    8   58 1     
   61   10   59 1     
   62   10   60 1     
@<TRIPOS>SUBSTRUCTURE
      1 ****           1
@<TRIPOS>SET
LONE_PAIRS      STATIC     ATOMS    <user>   **** ""
9 52 53 54 55 56 57 58 59 60
DONOR_HYDROGENS      STATIC     ATOMS    <user>   **** ""
4 29 30 31 33
ATOM$BLUE        STATIC     ATOMS    COLORGROUP SYSTEM
9 52 53 54 55 56 57 58 59 60
ATOM$RED        STATIC     ATOMS    COLORGROUP SYSTEM
4 29 30 31 33
@<TRIPOS>COMMENT
> <Gold.Version>
5.5

> <Gold.Id.Protein>
unknown|bialko_beta1|pdb

> <Gold.Protein.ActiveResidues>
 ALA86   ASP87   VAL90   VAL94   VAL95   GLY98   ALA99   LEU101  VAL102  CYS114 
 GLU115  TRP117  THR118  SER119  LEU120  ASP121  VAL122  CYS124  VAL125  THR126 
 SER128  SER173  PHE174  ILE177  CYS199  ASP200  PHE201  TYR207  SER215  PHE299 
 TRP303  PHE306  PHE307  ASN310  PHE325  VAL326  ASN329  TRP330  GLY332  TYR333 
 SER336 

> <Gold.Score>
     Score     S(PLP)   S(hbond)     S(cho)   S(metal)  DE(clash)   DE(tors)     intcor
     81.04     -77.82       2.00       0.00       0.00       0.00       1.66       0.54

> <Gold.PLP.Fitness>
81.0424

> <Gold.PLP.PLP>
-77.8180

> <Gold.PLP.part.hbond>
-6.0000

> <Gold.PLP.part.metal>
0.0000

> <Gold.PLP.part.buried>
-7.1372

> <Gold.PLP.part.nonpolar>
-66.1797

> <Gold.PLP.part.repulsive>
0.2930

> <Gold.PLP.ligand.clash>
0.0000

> <Gold.PLP.ligand.torsion>
1.6595

> <Gold.PLP.Chemscore.Hbond>
2.0000

> <Gold.PLP.Chemscore.CHOScore>
0.0000

> <Gold.PLP.Chemscore.Metal>
0.0000

> <Gold.Chemscore.Hbonds>
donor molecule, donor type, donor heavy atom, donor atom, acceptor molecule, acceptor atom, score
      L1  H     5    30       P1  2066  1.00
      L1  H    10    33       P1  2066  1.00

> <Gold.PLP.Chemscore.Internal.Correction>
0.5434

