#       Name:                C:\Users\porto\OneDrive\projekt\beta1\ligandy\L_3zpq.pdb L_3zpq.pdb 1
#       Creating user name   student
#       Creation time:       Mon Apr 08 14:36:49 2019


#       File generated by GOLD software.
#

@<TRIPOS>MOLECULE
C:\Users\porto\OneDrive\projekt\beta1\ligandy\L_3zpq.pdb L_3zpq.pdb 1|3zpq|mol2|1|dock3
    31    33     1
SMALL
GASTEIGER


@<TRIPOS>ATOM
      1 C1         -22.7649   2.3812  12.2658 C.ar           1 <1>               -0.0580
      2 C2         -23.0017   2.8726  13.5349 C.ar           1 <1>               -0.0400
      3 C3         -23.4662   4.1760  13.6855 C.ar           1 <1>                0.0390
      4 C4         -23.6586   4.9383  12.6001 C.ar           1 <1>                0.0207
      5 C5         -24.0687   6.2034  12.4591 C.ar           1 <1>               -0.0349
      6 C6         -24.0961   6.4986  11.1594 C.ar           1 <1>                0.0028
      7 N7         -23.7027   5.4162  10.4905 N.pl3          1 <1>               -0.3606
      8 C8         -23.4276   4.4584  11.3709 C.ar           1 <1>                0.0482
      9 C9         -22.9902   3.2165  11.1855 C.ar           1 <1>               -0.0377
     10 N10        -23.6480   4.6578  14.9308 N.pl3          1 <1>               -0.3270
     11 C11        -22.6743   5.6924  15.4086 C.3            1 <1>                0.0248
     12 C12        -23.1075   6.5541  16.5655 C.3            1 <1>                0.0117
     13 N13        -24.2258   5.9616  17.3293 N.3            1 <1>               -0.3130
     14 C14        -24.2046   4.5026  17.2033 C.3            1 <1>                0.0117
     15 C15        -24.6489   4.0902  15.8637 C.3            1 <1>                0.0248
     16 H1         -22.4131   1.3688  12.1354 H              1 <1>                0.0619
     17 H2         -22.8264   2.2474  14.3973 H              1 <1>                0.0636
     18 H5         -24.3107   6.7934  13.3314 H              1 <1>                0.0639
     19 H6         -24.4029   7.4816  10.8351 H              1 <1>                0.0807
     20 HN7        -23.6588   5.4343   9.4820 H              1 <1>                0.1653
     21 H9         -22.8111   2.8614  10.1810 H              1 <1>                0.0638
     22 H111       -22.3913   6.3310  14.5721 H              1 <1>                0.0476
     23 H112       -21.7300   5.2080  15.6557 H              1 <1>                0.0476
     24 H121       -23.4021   7.5360  16.1957 H              1 <1>                0.0439
     25 H122       -22.2607   6.7180  17.2321 H              1 <1>                0.0439
     26 HN13       -24.1378   6.2114  18.3042 H              1 <1>                0.1220
     27 H141       -24.8612   4.0636  17.9546 H              1 <1>                0.0439
     28 H142       -23.1923   4.1378  17.3786 H              1 <1>                0.0439
     29 H151       -24.6307   3.0028  15.7960 H              1 <1>                0.0476
     30 H152       -25.6253   4.5271  15.6564 H              1 <1>                0.0476
     31 ****       -25.0888   6.3116  16.9650 LP             1 <1>                0.0000
@<TRIPOS>BOND
    1    1    2 ar    
    2    1    9 ar    
    3    1   16 1     
    4    2    3 ar    
    5    2   17 1     
    6    3    4 ar    
    7    3   10 1     
    8    4    5 ar    
    9    4    8 ar    
   10    5    6 ar    
   11    5   18 1     
   12    6    7 ar    
   13    6   19 1     
   14    7    8 ar    
   15    7   20 1     
   16    8    9 ar    
   17    9   21 1     
   18   10   11 1     
   19   10   15 1     
   20   11   12 1     
   21   11   22 1     
   22   11   23 1     
   23   12   13 1     
   24   12   24 1     
   25   12   25 1     
   26   13   14 1     
   27   13   26 1     
   28   14   15 1     
   29   14   27 1     
   30   14   28 1     
   31   15   29 1     
   32   15   30 1     
   33   13   31 1     
@<TRIPOS>SUBSTRUCTURE
      1 ****           1
@<TRIPOS>SET
LONE_PAIRS      STATIC     ATOMS    <user>   **** ""
1 31
DONOR_HYDROGENS      STATIC     ATOMS    <user>   **** ""
2 20 26
ATOM$BLUE        STATIC     ATOMS    COLORGROUP SYSTEM
1 31
ATOM$RED        STATIC     ATOMS    COLORGROUP SYSTEM
2 20 26
@<TRIPOS>COMMENT
> <Gold.Version>
5.5

> <Gold.Id.Protein>
unknown|bialko_beta1|pdb

> <Gold.Protein.ActiveResidues>
 ALA86   ASP87   VAL90   VAL94   VAL95   GLY98   ALA99   LEU101  VAL102  CYS114 
 GLU115  TRP117  THR118  SER119  LEU120  ASP121  VAL122  CYS124  VAL125  THR126 
 SER128  SER173  PHE174  ILE177  CYS199  ASP200  PHE201  TYR207  SER215  PHE299 
 TRP303  PHE306  PHE307  ASN310  PHE325  VAL326  ASN329  TRP330  GLY332  TYR333 
 SER336 

> <Gold.Score>
     Score     S(PLP)   S(hbond)     S(cho)   S(metal)  DE(clash)   DE(tors)     intcor
     55.14     -54.64       0.16       0.00       0.00       0.00       0.00       0.00

> <Gold.PLP.Fitness>
55.1385

> <Gold.PLP.PLP>
-54.6443

> <Gold.PLP.part.hbond>
-1.6976

> <Gold.PLP.part.metal>
0.0000

> <Gold.PLP.part.buried>
-3.2569

> <Gold.PLP.part.nonpolar>
-49.9589

> <Gold.PLP.part.repulsive>
0.0000

> <Gold.PLP.ligand.clash>
0.0000

> <Gold.PLP.ligand.torsion>
0.0000

> <Gold.PLP.Chemscore.Hbond>
0.1647

> <Gold.PLP.Chemscore.CHOScore>
0.0000

> <Gold.PLP.Chemscore.Metal>
0.0000

> <Gold.Chemscore.Hbonds>
donor molecule, donor type, donor heavy atom, donor atom, acceptor molecule, acceptor atom, score
      L1  H    13    26       P1  2066  0.16

> <Gold.PLP.Chemscore.Internal.Correction>
0.0000

