#       Name:                *****
#       Creating user name   student
#       Creation time:       Mon Mar 18 16:41:05 2019


#       File generated by GOLD software.
#

@<TRIPOS>MOLECULE
*****
    53    55     1
SMALL
GASTEIGER


@<TRIPOS>ATOM
      1 C            3.0772  -2.7757  -0.9876 C.3            1 <1>               -0.0425
      2 C            1.5426  -2.7321  -1.0196 C.3            1 <1>                0.0444
      3 H            1.2405  -1.6842  -1.1415 H              1 <1>                0.0545
      4 N            1.0039  -3.3120   0.2116 N.3            1 <1>               -0.3224
      5 C            0.9555  -2.4895   1.3483 C.ar           1 <1>                0.1242
      6 C            0.8243  -3.1118   2.5744 C.ar           1 <1>               -0.0036
      7 C            0.7167  -2.2962   3.6704 C.ar           1 <1>                0.0344
      8 N            0.6912  -0.9589   3.5905 N.ar           1 <1>               -0.2228
      9 C            0.7860  -0.4281   2.3651 C.ar           1 <1>                0.2169
     10 N            0.7108   0.9594   2.3502 N.3            1 <1>               -0.3102
     11 C            0.0186   1.5471   1.2115 C.3            1 <1>                0.0460
     12 C           -0.5736   2.9182   1.5883 C.3            1 <1>                0.1050
     13 O           -1.1613   3.5104   0.4255 O.3            1 <1>               -0.4904
     14 C           -1.6919   4.7623   0.5814 C.ar           1 <1>                0.1207
     15 C           -1.7277   5.5375  -0.5842 C.ar           1 <1>               -0.0172
     16 C           -2.2701   6.8247  -0.5635 C.ar           1 <1>               -0.0230
     17 C           -2.7929   7.3267   0.6195 C.ar           1 <1>                0.1236
     18 F           -3.3204   8.5580   0.6409 F              1 <1>               -0.2055
     19 C           -2.7834   6.5624   1.7816 C.ar           1 <1>               -0.0230
     20 C           -2.2324   5.2757   1.7636 C.ar           1 <1>               -0.0172
     21 N            0.9218  -1.1469   1.2388 N.ar           1 <1>               -0.1998
     22 C            0.9531  -3.5142  -2.1904 C.ar           1 <1>               -0.0275
     23 C           -0.1783  -3.0019  -2.8490 C.ar           1 <1>               -0.0568
     24 C           -0.7713  -3.6944  -3.9073 C.ar           1 <1>               -0.0614
     25 C           -0.2492  -4.9170  -4.3202 C.ar           1 <1>               -0.0617
     26 C            0.8640  -5.4476  -3.6734 C.ar           1 <1>               -0.0614
     27 C            1.4582  -4.7555  -2.6134 C.ar           1 <1>               -0.0568
     28 H            3.4600  -3.7853  -0.7960 H              1 <1>                0.0251
     29 H            3.4683  -2.1364  -0.1889 H              1 <1>                0.0251
     30 H            3.5010  -2.4292  -1.9364 H              1 <1>                0.0251
     31 H            1.4357  -4.2066   0.4110 H              1 <1>                0.1480
     32 H            0.8183  -4.1879   2.6777 H              1 <1>                0.0667
     33 H            0.6403  -2.7070   4.6722 H              1 <1>                0.0832
     34 H            0.3404   1.1955   3.2656 H              1 <1>                0.1490
     35 H           -0.8003   0.9108   0.8510 H              1 <1>                0.0495
     36 H            0.7186   1.6693   0.3761 H              1 <1>                0.0495
     37 H            0.2151   3.5732   1.9798 H              1 <1>                0.0712
     38 H           -1.3308   2.7621   2.3657 H              1 <1>                0.0712
     39 H           -1.3235   5.1380  -1.5103 H              1 <1>                0.0655
     40 H           -2.2902   7.4323  -1.4641 H              1 <1>                0.0647
     41 H           -3.2136   6.9701   2.6916 H              1 <1>                0.0647
     42 H           -2.2636   4.6944   2.6791 H              1 <1>                0.0655
     43 H           -0.6112  -2.0558  -2.5289 H              1 <1>                0.0621
     44 H           -1.6457  -3.2808  -4.4026 H              1 <1>                0.0618
     45 H           -0.7147  -5.4589  -5.1393 H              1 <1>                0.0618
     46 H            1.2675  -6.4061  -3.9902 H              1 <1>                0.0618
     47 H            2.3154  -5.2071  -2.1223 H              1 <1>                0.0621
     48 ****         0.0346  -3.4384   0.0007 LP             1 <1>                0.0000
     49 ****         0.6056  -0.3859   4.4055 LP             1 <1>                0.0000
     50 ****         1.6088   1.3734   2.2011 LP             1 <1>                0.0000
     51 ****        -1.8945   2.9060   0.1139 LP             1 <1>                0.0000
     52 ****        -0.4532   3.5657  -0.2785 LP             1 <1>                0.0000
     53 ****         0.9956  -0.7000   0.3472 LP             1 <1>                0.0000
@<TRIPOS>BOND
    1    2    4 1     
    2    4    5 1     
    3    5    6 ar    
    4    6    7 ar    
    5    7    8 ar    
    6    8    9 ar    
    7    9   10 1     
    8   10   11 1     
    9   11   12 1     
   10   12   13 1     
   11   13   14 1     
   12   14   15 ar    
   13   15   16 ar    
   14   16   17 ar    
   15   17   18 1     
   16   17   19 ar    
   17   19   20 ar    
   18   14   20 ar    
   19    9   21 ar    
   20    5   21 ar    
   21    2   22 1     
   22   22   23 ar    
   23   23   24 ar    
   24   24   25 ar    
   25   25   26 ar    
   26   26   27 ar    
   27   22   27 ar    
   28    2    3 1     
   29    2    1 1     
   30    1   28 1     
   31    1   29 1     
   32    1   30 1     
   33    4   31 1     
   34    6   32 1     
   35    7   33 1     
   36   10   34 1     
   37   11   35 1     
   38   11   36 1     
   39   12   37 1     
   40   12   38 1     
   41   15   39 1     
   42   16   40 1     
   43   19   41 1     
   44   20   42 1     
   45   23   43 1     
   46   24   44 1     
   47   25   45 1     
   48   26   46 1     
   49   27   47 1     
   50    4   48 1     
   51    8   49 1     
   52   10   50 1     
   53   13   51 1     
   54   13   52 1     
   55   21   53 1     
@<TRIPOS>SUBSTRUCTURE
      1 ****           1
@<TRIPOS>SET
LONE_PAIRS      STATIC     ATOMS    <user>   **** ""
6 48 49 50 51 52 53
DONOR_HYDROGENS      STATIC     ATOMS    <user>   **** ""
2 31 34
ATOM$BLUE        STATIC     ATOMS    COLORGROUP SYSTEM
6 48 49 50 51 52 53
ATOM$RED        STATIC     ATOMS    COLORGROUP SYSTEM
2 31 34
