#       Name:                C:\Users\porto\OneDrive\projekt\beta1\ligandy\L_2y02.pdb L_2y02.pdb 1
#       Creating user name   student
#       Creation time:       Mon Apr 08 14:09:07 2019


#       File generated by GOLD software.
#

@<TRIPOS>MOLECULE
C:\Users\porto\OneDrive\projekt\beta1\ligandy\L_2y02.pdb L_2y02.pdb 1|2y02|mol2|1|dock3
    60    62     1
SMALL
GASTEIGER


@<TRIPOS>ATOM
      1 C1         -23.5893  10.7376  22.9959 C.ar           1 <1>               -0.0471
      2 N1         -24.8480  13.2412  23.3265 N.am           1 <1>               -0.3192
      3 O1         -24.7434  12.9091  25.5437 O.2            1 <1>               -0.2679
      4 C2         -23.9386  11.4819  21.8748 C.ar           1 <1>                0.0078
      5 N2         -22.9060   8.0219  18.3844 N.3            1 <1>               -0.3104
      6 O2         -25.5744  14.7847  21.1201 O.3            1 <1>               -0.5047
      7 C3         -23.6772  11.0432  20.4646 C.ar           1 <1>               -0.0086
      8 O3         -23.2153   3.5194  12.2487 O.3            1 <1>               -0.4951
      9 C4         -24.0739  11.9024  19.4180 C.ar           1 <1>               -0.0519
     10 O4         -23.6726   8.6558  20.8350 O.3            1 <1>               -0.3859
     11 C5         -24.6927  13.1329  19.6212 C.ar           1 <1>               -0.0178
     12 C6         -24.9588  13.6026  20.9089 C.ar           1 <1>                0.1407
     13 C7         -24.5931  12.8004  22.0908 C.ar           1 <1>                0.0915
     14 C8         -23.8771  11.2525  24.2578 C.ar           1 <1>                0.0034
     15 C9         -24.5018  12.4932  24.3937 C.ar           1 <1>                0.2493
     16 C10        -23.0039   9.7394  20.1717 C.3            1 <1>                0.0932
     17 C11        -23.0787   9.4439  18.6755 C.3            1 <1>                0.0264
     18 C12        -22.4989   7.5677  17.0521 C.3            1 <1>                0.0089
     19 C13        -21.2527   8.2838  16.5207 C.3            1 <1>               -0.0494
     20 C14        -23.6450   7.7177  16.0519 C.3            1 <1>               -0.0125
     21 C15        -23.5393   6.5920  15.0498 C.ar           1 <1>               -0.0457
     22 C16        -23.4955   6.8923  13.6919 C.ar           1 <1>               -0.0551
     23 C17        -23.3836   5.8661  12.7550 C.ar           1 <1>               -0.0197
     24 C18        -23.3179   4.5359  13.1788 C.ar           1 <1>                0.1201
     25 C19        -23.3600   4.2366  14.5439 C.ar           1 <1>               -0.0197
     26 C20        -23.4754   5.2612  15.4782 C.ar           1 <1>               -0.0551
     27 C21        -23.0045   2.1622  12.6591 C.3            1 <1>                0.0788
     28 H1         -23.1051   9.7798  22.8786 H              1 <1>                0.0626
     29 HN1        -25.2996  14.1345  23.4602 H              1 <1>                0.1690
     30 HN2        -23.8050   7.6248  18.6158 H              1 <1>                0.1223
     31 HO2        -25.6380  14.9487  22.0636 H              1 <1>                0.2922
     32 H4         -23.9011  11.6168  18.3909 H              1 <1>                0.0622
     33 HO4        -24.1926   8.1611  20.1972 H              1 <1>                0.2103
     34 H5         -24.9753  13.7420  18.7749 H              1 <1>                0.0655
     35 H8         -23.6162  10.6908  25.1428 H              1 <1>                0.0672
     36 H10        -21.9620   9.7809  20.4896 H              1 <1>                0.0656
     37 H111       -24.0404   9.7793  18.2869 H              1 <1>                0.0453
     38 H112       -22.3118  10.0163  18.1540 H              1 <1>                0.0453
     39 H12        -22.2624   6.5063  17.1244 H              1 <1>                0.0461
     40 H131       -21.0065   7.8994  15.5309 H              1 <1>                0.0245
     41 H132       -21.4477   9.3536  16.4564 H              1 <1>                0.0245
     42 H133       -20.4157   8.1074  17.1962 H              1 <1>                0.0245
     43 H141       -23.5532   8.6735  15.5356 H              1 <1>                0.0328
     44 H142       -24.5970   7.6473  16.5776 H              1 <1>                0.0328
     45 H16        -23.5485   7.9202  13.3638 H              1 <1>                0.0621
     46 H17        -23.3477   6.0993  11.7011 H              1 <1>                0.0654
     47 H19        -23.3033   3.2098  14.8738 H              1 <1>                0.0654
     48 H20        -23.5156   5.0307  16.5327 H              1 <1>                0.0621
     49 H211       -22.9524   1.5199  11.7801 H              1 <1>                0.0660
     50 H212       -22.0701   2.0911  13.2160 H              1 <1>                0.0660
     51 H213       -23.8300   1.8415  13.2942 H              1 <1>                0.0660
     52 ****       -25.1919  13.7937  25.6716 LP             1 <1>                0.0000
     53 ****       -24.4886  12.3581  26.3384 LP             1 <1>                0.0000
     54 ****       -22.1077   7.7273  18.9097 LP             1 <1>                0.0000
     55 ****       -26.4923  14.7578  20.7240 LP             1 <1>                0.0000
     56 ****       -25.0468  15.5169  20.6894 LP             1 <1>                0.0000
     57 ****       -24.0655   3.5286  11.7225 LP             1 <1>                0.0000
     58 ****       -22.4503   3.7576  11.6503 LP             1 <1>                0.0000
     59 ****       -24.2752   9.0207  21.5448 LP             1 <1>                0.0000
     60 ****       -22.9941   8.0512  21.2523 LP             1 <1>                0.0000
@<TRIPOS>BOND
    1    1    4 ar    
    2    1   14 ar    
    3    1   28 1     
    4    2   13 ar    
    5    2   15 am    
    6    2   29 1     
    7    3   15 2     
    8    4    7 ar    
    9    4   13 ar    
   10    5   18 1     
   11    5   17 1     
   12    5   30 1     
   13    6   12 1     
   14    6   31 1     
   15    7   16 1     
   16    7    9 ar    
   17    8   27 1     
   18    8   24 1     
   19    9   11 ar    
   20    9   32 1     
   21   10   16 1     
   22   10   33 1     
   23   11   12 ar    
   24   11   34 1     
   25   12   13 ar    
   26   14   15 ar    
   27   14   35 1     
   28   16   17 1     
   29   16   36 1     
   30   17   37 1     
   31   17   38 1     
   32   18   19 1     
   33   18   20 1     
   34   18   39 1     
   35   19   40 1     
   36   19   41 1     
   37   19   42 1     
   38   20   21 1     
   39   20   43 1     
   40   20   44 1     
   41   21   22 ar    
   42   21   26 ar    
   43   22   23 ar    
   44   22   45 1     
   45   23   24 ar    
   46   23   46 1     
   47   24   25 ar    
   48   25   26 ar    
   49   25   47 1     
   50   26   48 1     
   51   27   49 1     
   52   27   50 1     
   53   27   51 1     
   54    3   52 1     
   55    3   53 1     
   56    5   54 1     
   57    6   55 1     
   58    6   56 1     
   59    8   57 1     
   60    8   58 1     
   61   10   59 1     
   62   10   60 1     
@<TRIPOS>SUBSTRUCTURE
      1 ****           1
@<TRIPOS>SET
LONE_PAIRS      STATIC     ATOMS    <user>   **** ""
9 52 53 54 55 56 57 58 59 60
DONOR_HYDROGENS      STATIC     ATOMS    <user>   **** ""
4 29 30 31 33
ATOM$BLUE        STATIC     ATOMS    COLORGROUP SYSTEM
9 52 53 54 55 56 57 58 59 60
ATOM$RED        STATIC     ATOMS    COLORGROUP SYSTEM
4 29 30 31 33
@<TRIPOS>COMMENT
> <Gold.Version>
5.5

> <Gold.Id.Protein>
unknown|bialko_beta1|pdb

> <Gold.Protein.ActiveResidues>
 ALA86   ASP87   VAL90   VAL94   VAL95   GLY98   ALA99   LEU101  VAL102  CYS114 
 GLU115  TRP117  THR118  SER119  LEU120  ASP121  VAL122  CYS124  VAL125  THR126 
 SER128  SER173  PHE174  ILE177  CYS199  ASP200  PHE201  TYR207  SER215  PHE299 
 TRP303  PHE306  PHE307  ASN310  PHE325  VAL326  ASN329  TRP330  GLY332  TYR333 
 SER336 

> <Gold.Score>
     Score     S(PLP)   S(hbond)     S(cho)   S(metal)  DE(clash)   DE(tors)     intcor
     79.85     -75.50       2.00       0.00       0.00       0.00       0.97       0.30

> <Gold.PLP.Fitness>
79.8509

> <Gold.PLP.PLP>
-75.4965

> <Gold.PLP.part.hbond>
-6.0000

> <Gold.PLP.part.metal>
0.0000

> <Gold.PLP.part.buried>
-7.6492

> <Gold.PLP.part.nonpolar>
-63.2403

> <Gold.PLP.part.repulsive>
0.2118

> <Gold.PLP.ligand.clash>
0.0000

> <Gold.PLP.ligand.torsion>
0.9711

> <Gold.PLP.Chemscore.Hbond>
2.0000

> <Gold.PLP.Chemscore.CHOScore>
0.0000

> <Gold.PLP.Chemscore.Metal>
0.0000

> <Gold.Chemscore.Hbonds>
donor molecule, donor type, donor heavy atom, donor atom, acceptor molecule, acceptor atom, score
      L1  H     5    30       P1  2066  1.00
      L1  H    10    33       P1  2066  1.00

> <Gold.PLP.Chemscore.Internal.Correction>
0.2967

