#       Name:                *****
#       Creating user name   student
#       Creation time:       Mon Mar 18 16:40:41 2019


#       File generated by GOLD software.
#

@<TRIPOS>MOLECULE
*****|CHEMBL6310|mol2|1|dock2
    32    34     1
SMALL
GASTEIGER


@<TRIPOS>ATOM
      1 C          -37.4925  14.1117   6.2365 C.3            1 <1>                0.0788
      2 O          -36.7426  14.9599   7.1032 O.3            1 <1>               -0.4950
      3 C          -36.5899  16.2450   6.6447 C.ar           1 <1>                0.1221
      4 C          -37.2983  16.7713   5.5645 C.ar           1 <1>               -0.0193
      5 C          -37.1040  18.0950   5.1596 C.ar           1 <1>               -0.0489
      6 C          -36.1730  18.8943   5.8437 C.ar           1 <1>                0.0034
      7 C          -35.7464  20.2379   5.7047 C.ar           1 <1>               -0.0167
      8 C          -36.1391  21.2849   4.7251 C.3            1 <1>               -0.0128
      9 C          -35.4978  22.6459   5.0935 C.3            1 <1>                0.0003
     10 N          -34.1120  22.5430   5.5998 N.3            1 <1>               -0.3103
     11 C          -34.0438  21.7496   6.8406 C.3            1 <1>                0.0367
     12 C          -34.7690  20.4670   6.6492 C.ar           1 <1>                0.0342
     13 N          -34.5912  19.3189   7.3698 N.pl3          1 <1>               -0.3566
     14 H          -33.9275  19.1891   8.1209 H              1 <1>                0.1656
     15 C          -35.4448  18.3397   6.8991 C.ar           1 <1>                0.0504
     16 C          -35.6256  17.0123   7.3121 C.ar           1 <1>                0.0040
     17 H          -37.6844  13.1738   6.7649 H              1 <1>                0.0660
     18 H          -36.9295  13.8654   5.3307 H              1 <1>                0.0660
     19 H          -38.4597  14.5623   5.9860 H              1 <1>                0.0660
     20 H          -38.0020  16.1706   4.9995 H              1 <1>                0.0654
     21 H          -37.6615  18.4962   4.3189 H              1 <1>                0.0625
     22 H          -37.2303  21.3901   4.7008 H              1 <1>                0.0326
     23 H          -35.8089  20.9786   3.7263 H              1 <1>                0.0326
     24 H          -36.1162  23.1541   5.8445 H              1 <1>                0.0427
     25 H          -35.5034  23.2830   4.2015 H              1 <1>                0.0427
     26 H          -33.7523  23.4757   5.7878 H              1 <1>                0.1223
     27 H          -34.4963  22.3119   7.6661 H              1 <1>                0.0488
     28 H          -32.9942  21.5674   7.0910 H              1 <1>                0.0488
     29 H          -35.0531  16.5898   8.1311 H              1 <1>                0.0675
     30 ****       -35.8338  14.5602   7.2228 LP             1 <1>                0.0000
     31 ****       -37.2097  14.9962   7.9866 LP             1 <1>                0.0000
     32 ****       -33.5630  22.0848   4.9008 LP             1 <1>                0.0000
@<TRIPOS>BOND
    1    1    2 1     
    2    2    3 1     
    3    3    4 ar    
    4    4    5 ar    
    5    5    6 ar    
    6    6    7 ar    
    7    7    8 1     
    8    8    9 1     
    9    9   10 1     
   10   10   11 1     
   11   11   12 1     
   12    7   12 ar    
   13   12   13 ar    
   14   13   14 1     
   15   13   15 ar    
   16    6   15 ar    
   17   15   16 ar    
   18    3   16 ar    
   19    1   17 1     
   20    1   18 1     
   21    1   19 1     
   22    4   20 1     
   23    5   21 1     
   24    8   22 1     
   25    8   23 1     
   26    9   24 1     
   27    9   25 1     
   28   10   26 1     
   29   11   27 1     
   30   11   28 1     
   31   16   29 1     
   32    2   30 1     
   33    2   31 1     
   34   10   32 1     
@<TRIPOS>SUBSTRUCTURE
      1 ****           1
@<TRIPOS>SET
LONE_PAIRS      STATIC     ATOMS    <user>   **** ""
3 30 31 32
DONOR_HYDROGENS      STATIC     ATOMS    <user>   **** ""
2 26 14
ATOM$BLUE        STATIC     ATOMS    COLORGROUP SYSTEM
3 30 31 32
ATOM$RED        STATIC     ATOMS    COLORGROUP SYSTEM
2 26 14
@<TRIPOS>COMMENT
> <Gold.Version>
5.5

> <Gold.Id.Protein>
ID|ID_protein|mol2

> <Gold.Protein.ActiveResidues>
 LEU18   LEU52   SER53   ALA55   VAL56   ALA57   MET59   PRO60   PHE61   VAL62  
 SER63   VAL64   LEU67   TRP72   PHE78   CYS79   VAL81   PHE82   ILE83   ALA84  
 MET85   ASP86   VAL87   MET88   CYS89   CYS90   SER93   TRP131  THR138  LEU139 
 LEU142  PHE161  GLU222  GLU225  LEU229  LYS248  THR251  THR252  GLY254  ILE255 

> <Gold.Score>
     Score     S(PLP)   S(hbond)     S(cho)   S(metal)  DE(clash)   DE(tors)     intcor
     45.06     -45.13       0.00       0.00       0.00       0.00       0.14       0.21

> <Gold.PLP.Fitness>
45.0597

> <Gold.PLP.PLP>
-45.1301

> <Gold.PLP.part.hbond>
-1.9078

> <Gold.PLP.part.metal>
0.0000

> <Gold.PLP.part.buried>
-6.6102

> <Gold.PLP.part.nonpolar>
-36.8316

> <Gold.PLP.part.repulsive>
0.0898

> <Gold.PLP.ligand.clash>
0.0000

> <Gold.PLP.ligand.torsion>
0.1405

> <Gold.PLP.Chemscore.Hbond>
0.0000

> <Gold.PLP.Chemscore.CHOScore>
0.0000

> <Gold.PLP.Chemscore.Metal>
0.0000

> <Gold.PLP.Chemscore.Internal.Correction>
0.2106

