#       Name:                C:\Users\porto\OneDrive\projekt\beta1\ligandy\L_2y02.pdb L_2y02.pdb 1
#       Creating user name   student
#       Creation time:       Mon Apr 08 14:41:28 2019


#       File generated by GOLD software.
#

@<TRIPOS>MOLECULE
C:\Users\porto\OneDrive\projekt\beta1\ligandy\L_2y02.pdb L_2y02.pdb 1|2y02|mol2|1|dock2
    60    62     1
SMALL
GASTEIGER


@<TRIPOS>ATOM
      1 C1         -23.6278  10.7023  23.3010 C.ar           1 <1>               -0.0471
      2 N1         -24.7595  13.2738  23.5625 N.am           1 <1>               -0.3192
      3 O1         -24.7739  12.9520  25.7837 O.2            1 <1>               -0.2679
      4 C2         -23.8842  11.4568  22.1618 C.ar           1 <1>                0.0078
      5 N2         -22.8015   7.9533  18.7124 N.3            1 <1>               -0.3104
      6 O2         -25.2986  14.8393  21.3183 O.3            1 <1>               -0.5047
      7 C3         -23.5839  10.9944  20.7671 C.ar           1 <1>               -0.0086
      8 O3         -23.2281   3.6397  12.3736 O.3            1 <1>               -0.4951
      9 C4         -23.8845  11.8667  19.6996 C.ar           1 <1>               -0.0519
     10 O4         -23.7593   8.6080  21.1006 O.3            1 <1>               -0.3859
     11 C5         -24.4428  13.1309  19.8687 C.ar           1 <1>               -0.0178
     12 C6         -24.7405  13.6237  21.1408 C.ar           1 <1>                0.1407
     13 C7         -24.4737  12.8108  22.3417 C.ar           1 <1>                0.0915
     14 C8         -23.9435  11.2411  24.5462 C.ar           1 <1>                0.0034
     15 C9         -24.5040  12.5154  24.6478 C.ar           1 <1>                0.2493
     16 C10        -22.9714   9.6534  20.5111 C.3            1 <1>                0.0932
     17 C11        -22.9396   9.3779  19.0096 C.3            1 <1>                0.0264
     18 C12        -22.5527   7.4875  17.3457 C.3            1 <1>                0.0089
     19 C13        -21.5017   8.3189  16.6024 C.3            1 <1>               -0.0494
     20 C14        -23.8494   7.4545  16.5371 C.3            1 <1>               -0.0125
     21 C15        -23.6772   6.4509  15.4210 C.ar           1 <1>               -0.0457
     22 C16        -23.4584   5.1136  15.7369 C.ar           1 <1>               -0.0551
     23 C17        -23.3117   4.1726  14.7189 C.ar           1 <1>               -0.0197
     24 C18        -23.3818   4.5720  13.3814 C.ar           1 <1>                0.1201
     25 C19        -23.6037   5.9161  13.0663 C.ar           1 <1>               -0.0197
     26 C20        -23.7464   6.8552  14.0830 C.ar           1 <1>               -0.0551
     27 C21        -22.9974   2.2575  12.6758 C.3            1 <1>                0.0788
     28 H1         -23.1926   9.7184  23.2103 H              1 <1>                0.0626
     29 HN1        -25.1664  14.1916  23.6715 H              1 <1>                0.1690
     30 HN2        -23.6671   7.5587  19.0508 H              1 <1>                0.1223
     31 HO2        -24.9585  15.4474  20.6583 H              1 <1>                0.2922
     32 H4         -23.6815  11.5648  18.6827 H              1 <1>                0.0622
     33 HO4        -24.4176   8.3075  20.4695 H              1 <1>                0.2103
     34 H5         -24.6526  13.7487  19.0077 H              1 <1>                0.0655
     35 H8         -23.7545  10.6722  25.4447 H              1 <1>                0.0672
     36 H10        -21.9590   9.6255  20.9144 H              1 <1>                0.0656
     37 H111       -23.8535   9.7567  18.5516 H              1 <1>                0.0453
     38 H112       -22.1118   9.9242  18.5580 H              1 <1>                0.0453
     39 H12        -22.1787   6.4658  17.4093 H              1 <1>                0.0461
     40 H131       -21.3662   7.9197  15.5973 H              1 <1>                0.0245
     41 H132       -21.8347   9.3542  16.5399 H              1 <1>                0.0245
     42 H133       -20.5550   8.2742  17.1406 H              1 <1>                0.0245
     43 H141       -24.0377   8.4409  16.1129 H              1 <1>                0.0328
     44 H142       -24.6711   7.1428  17.1816 H              1 <1>                0.0328
     45 H16        -23.4019   4.8048  16.7705 H              1 <1>                0.0621
     46 H17        -23.1438   3.1343  14.9640 H              1 <1>                0.0654
     47 H19        -23.6643   6.2259  12.0335 H              1 <1>                0.0654
     48 H20        -23.9104   7.8950  13.8407 H              1 <1>                0.0621
     49 H211       -22.9045   1.6925  11.7483 H              1 <1>                0.0660
     50 H212       -22.0782   2.1596  13.2535 H              1 <1>                0.0660
     51 H213       -23.8333   1.8673  13.2559 H              1 <1>                0.0660
     52 ****       -25.1780  13.8609  25.8870 LP             1 <1>                0.0000
     53 ****       -24.5864  12.3935  26.5917 LP             1 <1>                0.0000
     54 ****       -21.9471   7.6629  19.1434 LP             1 <1>                0.0000
     55 ****       -25.0738  15.1790  22.2316 LP             1 <1>                0.0000
     56 ****       -26.2915  14.7670  21.2247 LP             1 <1>                0.0000
     57 ****       -24.0626   3.6751  11.8237 LP             1 <1>                0.0000
     58 ****       -22.4518   3.9434  11.8212 LP             1 <1>                0.0000
     59 ****       -24.2168   8.9566  21.9187 LP             1 <1>                0.0000
     60 ****       -23.1649   7.8438  21.3513 LP             1 <1>                0.0000
@<TRIPOS>BOND
    1    1    4 ar    
    2    1   14 ar    
    3    1   28 1     
    4    2   13 ar    
    5    2   15 am    
    6    2   29 1     
    7    3   15 2     
    8    4    7 ar    
    9    4   13 ar    
   10    5   18 1     
   11    5   17 1     
   12    5   30 1     
   13    6   12 1     
   14    6   31 1     
   15    7   16 1     
   16    7    9 ar    
   17    8   27 1     
   18    8   24 1     
   19    9   11 ar    
   20    9   32 1     
   21   10   16 1     
   22   10   33 1     
   23   11   12 ar    
   24   11   34 1     
   25   12   13 ar    
   26   14   15 ar    
   27   14   35 1     
   28   16   17 1     
   29   16   36 1     
   30   17   37 1     
   31   17   38 1     
   32   18   19 1     
   33   18   20 1     
   34   18   39 1     
   35   19   40 1     
   36   19   41 1     
   37   19   42 1     
   38   20   21 1     
   39   20   43 1     
   40   20   44 1     
   41   21   22 ar    
   42   21   26 ar    
   43   22   23 ar    
   44   22   45 1     
   45   23   24 ar    
   46   23   46 1     
   47   24   25 ar    
   48   25   26 ar    
   49   25   47 1     
   50   26   48 1     
   51   27   49 1     
   52   27   50 1     
   53   27   51 1     
   54    3   52 1     
   55    3   53 1     
   56    5   54 1     
   57    6   55 1     
   58    6   56 1     
   59    8   57 1     
   60    8   58 1     
   61   10   59 1     
   62   10   60 1     
@<TRIPOS>SUBSTRUCTURE
      1 ****           1
@<TRIPOS>SET
LONE_PAIRS      STATIC     ATOMS    <user>   **** ""
9 52 53 54 55 56 57 58 59 60
DONOR_HYDROGENS      STATIC     ATOMS    <user>   **** ""
4 29 30 31 33
ATOM$BLUE        STATIC     ATOMS    COLORGROUP SYSTEM
9 52 53 54 55 56 57 58 59 60
ATOM$RED        STATIC     ATOMS    COLORGROUP SYSTEM
4 29 30 31 33
@<TRIPOS>COMMENT
> <Gold.Version>
5.5

> <Gold.Id.Protein>
unknown|bialko_beta1|pdb

> <Gold.Protein.ActiveResidues>
 ALA86   ASP87   VAL90   VAL94   VAL95   GLY98   ALA99   LEU101  VAL102  CYS114 
 GLU115  TRP117  THR118  SER119  LEU120  ASP121  VAL122  CYS124  VAL125  THR126 
 SER128  SER173  PHE174  ILE177  CYS199  ASP200  PHE201  TYR207  SER215  PHE299 
 TRP303  PHE306  PHE307  ASN310  PHE325  VAL326  ASN329  TRP330  GLY332  TYR333 
 SER336 

> <Gold.Score>
     Score     S(PLP)   S(hbond)     S(cho)   S(metal)  DE(clash)   DE(tors)     intcor
     79.27     -74.94       2.00       0.00       0.00       0.00       1.26       0.84

> <Gold.PLP.Fitness>
79.2667

> <Gold.PLP.PLP>
-74.9378

> <Gold.PLP.part.hbond>
-6.0696

> <Gold.PLP.part.metal>
0.0000

> <Gold.PLP.part.buried>
-5.9767

> <Gold.PLP.part.nonpolar>
-64.2339

> <Gold.PLP.part.repulsive>
0.2149

> <Gold.PLP.ligand.clash>
0.0000

> <Gold.PLP.ligand.torsion>
1.2572

> <Gold.PLP.Chemscore.Hbond>
2.0000

> <Gold.PLP.Chemscore.CHOScore>
0.0000

> <Gold.PLP.Chemscore.Metal>
0.0000

> <Gold.Chemscore.Hbonds>
donor molecule, donor type, donor heavy atom, donor atom, acceptor molecule, acceptor atom, score
      L1  H     5    30       P1  2066  1.00
      L1  H    10    33       P1  2066  1.00

> <Gold.PLP.Chemscore.Internal.Correction>
0.8432

