#       Name:                C:\Users\porto\OneDrive\projekt\beta1\ligandy\L_6h7m.pdb L_6h7m.pdb 1
#       Creating user name   student
#       Creation time:       Wed Apr 10 11:24:40 2019


#       File generated by GOLD software.
#

@<TRIPOS>MOLECULE
C:\Users\porto\OneDrive\projekt\beta1\ligandy\L_6h7m.pdb L_6h7m.pdb 1|6h7m|mol2|1|dock83
    45    45     1
SMALL
GASTEIGER


@<TRIPOS>ATOM
      1 C1         -23.2585   5.9767  16.0410 C.3            1 <1>                0.0926
      2 N1         -22.2195   7.7834  17.3559 N.3            1 <1>               -0.3086
      3 O1         -22.0351   2.4289  11.7759 O.3            1 <1>               -0.5064
      4 C2         -22.9327   5.1892  11.1158 C.3            1 <1>                0.0727
      5 O2         -22.5149   6.5594  10.9793 O.3            1 <1>               -0.3903
      6 C3         -22.0088   6.8135  16.2946 C.3            1 <1>                0.0266
      7 O3         -23.7148   5.3547  17.2485 O.3            1 <1>               -0.3859
      8 C4         -21.2452   8.8348  17.6379 C.3            1 <1>                0.0108
      9 C5         -21.2880   9.8720  16.4913 C.3            1 <1>               -0.0473
     10 C6         -19.8387   8.2220  17.7809 C.3            1 <1>               -0.0473
     11 C7         -21.6471   9.4840  18.9735 C.3            1 <1>               -0.0473
     12 C8         -22.9336   5.0235  14.9389 C.ar           1 <1>               -0.0174
     13 C9         -22.5080   3.7155  15.1810 C.ar           1 <1>               -0.0526
     14 C10        -22.2164   2.8524  14.1217 C.ar           1 <1>               -0.0195
     15 C11        -22.3272   3.2785  12.7936 C.ar           1 <1>                0.1222
     16 C12        -22.7684   4.6662  12.5258 C.ar           1 <1>                0.0195
     17 C13        -23.0555   5.4854  13.6154 C.ar           1 <1>               -0.0472
     18 H1         -24.0442   6.6444  15.6881 H              1 <1>                0.0656
     19 HN1        -22.3370   7.2035  18.1745 H              1 <1>                0.1225
     20 HO1        -22.3063   1.5395  12.0132 H              1 <1>                0.2921
     21 H21        -23.9761   5.0974  10.8149 H              1 <1>                0.0608
     22 H22        -22.3602   4.5652  10.4292 H              1 <1>                0.0608
     23 HO2        -21.5872   6.6370  11.2142 H              1 <1>                0.2098
     24 H31        -21.7280   7.3339  15.3789 H              1 <1>                0.0453
     25 H32        -21.1811   6.1568  16.5617 H              1 <1>                0.0453
     26 HO3        -24.4561   4.7772  17.0514 H              1 <1>                0.2103
     27 H51        -20.6961  10.7445  16.7674 H              1 <1>                0.0247
     28 H52        -20.8784   9.4284  15.5833 H              1 <1>                0.0247
     29 H53        -22.3197  10.1751  16.3137 H              1 <1>                0.0247
     30 H61        -19.5188   7.8178  16.8204 H              1 <1>                0.0247
     31 H62        -19.1370   8.9920  18.1019 H              1 <1>                0.0247
     32 H63        -19.8635   7.4223  18.5215 H              1 <1>                0.0247
     33 H71        -22.6849   9.8112  18.9210 H              1 <1>                0.0247
     34 H72        -21.5357   8.7576  19.7787 H              1 <1>                0.0247
     35 H73        -21.0046  10.3429  19.1681 H              1 <1>                0.0247
     36 H9         -22.4015   3.3614  16.1956 H              1 <1>                0.0622
     37 H10        -21.8997   1.8393  14.3225 H              1 <1>                0.0654
     38 H13        -23.3789   6.4979  13.4244 H              1 <1>                0.0626
     39 ****       -22.9826   8.3560  17.0564 LP             1 <1>                0.0000
     40 ****       -21.0502   2.4419  11.6032 LP             1 <1>                0.0000
     41 ****       -22.5220   2.7168  10.9513 LP             1 <1>                0.0000
     42 ****       -23.0616   7.1363  11.5862 LP             1 <1>                0.0000
     43 ****       -22.6447   6.8544  10.0327 LP             1 <1>                0.0000
     44 ****       -24.0041   6.0587  17.8972 LP             1 <1>                0.0000
     45 ****       -22.9716   4.8182  17.6483 LP             1 <1>                0.0000
@<TRIPOS>BOND
    1    1    6 1     
    2    1    7 1     
    3    1   12 1     
    4    1   18 1     
    5    2    8 1     
    6    2    6 1     
    7    2   19 1     
    8    3   15 1     
    9    3   20 1     
   10    4   16 1     
   11    4    5 1     
   12    4   21 1     
   13    4   22 1     
   14    5   23 1     
   15    6   24 1     
   16    6   25 1     
   17    7   26 1     
   18    8    9 1     
   19    8   10 1     
   20    8   11 1     
   21    9   27 1     
   22    9   28 1     
   23    9   29 1     
   24   10   30 1     
   25   10   31 1     
   26   10   32 1     
   27   11   33 1     
   28   11   34 1     
   29   11   35 1     
   30   12   13 ar    
   31   12   17 ar    
   32   13   14 ar    
   33   13   36 1     
   34   14   15 ar    
   35   14   37 1     
   36   15   16 ar    
   37   16   17 ar    
   38   17   38 1     
   39    2   39 1     
   40    3   40 1     
   41    3   41 1     
   42    5   42 1     
   43    5   43 1     
   44    7   44 1     
   45    7   45 1     
@<TRIPOS>SUBSTRUCTURE
      1 ****           1
@<TRIPOS>SET
LONE_PAIRS      STATIC     ATOMS    <user>   **** ""
7 39 40 41 42 43 44 45
DONOR_HYDROGENS      STATIC     ATOMS    <user>   **** ""
4 19 20 23 26
ATOM$BLUE        STATIC     ATOMS    COLORGROUP SYSTEM
7 39 40 41 42 43 44 45
ATOM$RED        STATIC     ATOMS    COLORGROUP SYSTEM
4 19 20 23 26
@<TRIPOS>COMMENT
> <Gold.Version>
5.6

> <Gold.Id.Protein>
unknown|bialko_beta1 1|pdb

> <Gold.Protein.ActiveResidues>
 ALA86   ASP87   VAL90   VAL94   VAL95   GLY98   ALA99   LEU101  VAL102  CYS114 
 GLU115  TRP117  THR118  SER119  LEU120  ASP121  VAL122  CYS124  VAL125  THR126 
 SER128  SER173  PHE174  ILE177  CYS199  ASP200  PHE201  TYR207  SER215  PHE299 
 TRP303  PHE306  PHE307  ASN310  PHE325  VAL326  ASN329  TRP330  GLY332  TYR333 
 SER336 

> <Gold.Score>
     Fitness  S(hb_ext) S(vdw_ext)  S(hb_int)    S(int)      intcor
     39.93       0.00      29.77       0.00      -1.01      -6.32

> <Gold.Goldscore.Fitness>
39.9319

> <Gold.Goldscore.Internal.Vdw>
-5.2440

> <Gold.Goldscore.Internal.Torsion>
-2.0786

> <Gold.Goldscore.External.Vdw>
29.7741

> <Gold.Goldscore.Internal.HBond>
0.0000

> <Gold.Goldscore.External.HBond>
0.0000

> <Gold.Goldscore.Internal.Correction>
-6.3150

> <Gold.Goldscore.Internal.Vdw.Weighted>
-5.2440

> <Gold.Goldscore.Internal.Torsion.Weighted>
-2.0786

> <Gold.Goldscore.External.Vdw.Weighted>
40.9394

> <Gold.Goldscore.Internal.HBond.Weighted>
0.0000

> <Gold.Goldscore.External.HBond.Weighted>
0.0000

> <Gold.Goldscore.Internal.Correction.Weighted>
-6.3150

