#       Name:                C:\Users\porto\OneDrive\projekt\beta2\ligandy\L_4lde.pdb L_4lde.pdb 1
#       Creating user name   student
#       Creation time:       Wed Apr 10 10:06:51 2019


#       File generated by GOLD software.
#

@<TRIPOS>MOLECULE
C:\Users\porto\OneDrive\projekt\beta2\ligandy\L_4lde.pdb L_4lde.pdb 1|4lde|mol2|1|dock2
    62    64     1
SMALL
GASTEIGER


@<TRIPOS>ATOM
      1 CAA        -32.6883   5.6016   9.9131 C.3            1 <1>               -0.0395
      2 CAB        -35.3072   6.7834   7.1323 C.3            1 <1>               -0.0467
      3 CAC        -34.1233   6.9472   4.9419 C.3            1 <1>               -0.0467
      4 CAG        -34.7655   2.5985   8.9879 C.ar           1 <1>               -0.0615
      5 CAH        -34.9024   2.7427   7.6120 C.ar           1 <1>               -0.0615
      6 CAI        -34.0449   3.5293   9.7243 C.ar           1 <1>               -0.0586
      7 CAJ        -34.3092   3.8156   6.9724 C.ar           1 <1>               -0.0583
      8 CAK        -28.6867  11.6499   5.8833 C.ar           1 <1>               -0.0178
      9 CAL        -29.9613  11.2992   6.3205 C.ar           1 <1>               -0.0490
     10 CAM        -28.1834   7.2695   8.0905 C.3            1 <1>                0.1656
     11 CAN        -32.2280   8.7438   6.2954 C.3            1 <1>                0.0267
     12 CAO        -32.9648   5.9215   6.9717 C.3            1 <1>               -0.0096
     13 CAS        -26.8701   7.5749   7.3954 C.2            1 <1>                0.2550
     14 CAT        -33.4586   4.6098   9.0825 C.ar           1 <1>               -0.0472
     15 CAU        -27.6464  10.7309   5.9506 C.ar           1 <1>                0.1416
     16 CAV        -33.6006   4.7624   7.7077 C.ar           1 <1>               -0.0427
     17 CAW        -30.2041  10.0268   6.8262 C.ar           1 <1>                0.0258
     18 CAX        -27.8799   9.4693   6.4599 C.ar           1 <1>                0.1180
     19 CAY        -29.1465   9.1165   6.8959 C.ar           1 <1>                0.1515
     20 CAZ        -31.5736   9.6824   7.2946 C.3            1 <1>                0.0960
     21 NAP        -33.4838   8.2801   6.8461 N.3            1 <1>               -0.3080
     22 NAQ        -26.8688   8.5715   6.5154 N.am           1 <1>               -0.2769
     23 OAD        -25.8658   6.9256   7.6436 O.2            1 <1>               -0.2717
     24 OAE        -26.3947  11.0648   5.5248 O.3            1 <1>               -0.5048
     25 OAF        -32.4116  10.8441   7.4092 O.3            1 <1>               -0.3858
     26 OAR        -29.2855   7.8427   7.3782 O.3            1 <1>               -0.4804
     27 CBA        -33.9541   6.9674   6.4567 C.3            1 <1>                0.0176
     28 HAA1       -32.8119   5.3649  10.9694 H              1 <1>                0.0278
     29 HAA2       -31.6315   5.5528   9.6510 H              1 <1>                0.0278
     30 HAA3       -33.0636   6.6066   9.7204 H              1 <1>                0.0278
     31 HAB1       -35.1738   6.7582   8.2139 H              1 <1>                0.0247
     32 HAB2       -35.9626   7.6131   6.8670 H              1 <1>                0.0247
     33 HAB3       -35.7554   5.8466   6.8006 H              1 <1>                0.0247
     34 HAC1       -34.5349   5.9859   4.6346 H              1 <1>                0.0247
     35 HAC2       -34.8015   7.7455   4.6412 H              1 <1>                0.0247
     36 HAC3       -33.1540   7.0954   4.4654 H              1 <1>                0.0247
     37 HAG        -35.2212   1.7584   9.4912 H              1 <1>                0.0618
     38 HAH        -35.4697   2.0184   7.0466 H              1 <1>                0.0618
     39 HAI        -33.9428   3.4104  10.7930 H              1 <1>                0.0620
     40 HAJ        -34.3957   3.9201   5.9011 H              1 <1>                0.0620
     41 HAK        -28.5035  12.6391   5.4901 H              1 <1>                0.0655
     42 HAL        -30.7667  12.0168   6.2674 H              1 <1>                0.0623
     43 HAM1       -28.1589   7.6696   9.1040 H              1 <1>                0.0795
     44 HAM2       -28.3168   6.1896   8.1571 H              1 <1>                0.0795
     45 HAN1       -31.5735   7.8906   6.1157 H              1 <1>                0.0453
     46 HAN2       -32.4150   9.2785   5.3636 H              1 <1>                0.0453
     47 HAO1       -32.3765   5.5398   6.1372 H              1 <1>                0.0331
     48 HAO2       -32.2346   6.4046   7.6204 H              1 <1>                0.0331
     49 HAZ        -31.5087   9.1878   8.2640 H              1 <1>                0.0657
     50 HNAP       -33.4179   8.2468   7.8535 H              1 <1>                0.1225
     51 HNAQ       -26.1007   8.6716   5.8668 H              1 <1>                0.1551
     52 HOAE       -26.2401  11.9982   5.6862 H              1 <1>                0.2922
     53 HOAF       -32.0384  11.4458   8.0585 H              1 <1>                0.2103
     54 ****       -34.1340   8.9425   6.4740 LP             1 <1>                0.0000
     55 ****       -25.9033   6.1826   8.3119 LP             1 <1>                0.0000
     56 ****       -25.0061   7.1369   7.1785 LP             1 <1>                0.0000
     57 ****       -26.3150  10.8783   4.5456 LP             1 <1>                0.0000
     58 ****       -25.7176  10.5237   6.0234 LP             1 <1>                0.0000
     59 ****       -33.3275  10.5670   7.6994 LP             1 <1>                0.0000
     60 ****       -32.4675  11.3034   6.5227 LP             1 <1>                0.0000
     61 ****       -30.0713   7.8429   7.9966 LP             1 <1>                0.0000
     62 ****       -29.4761   7.2482   6.5971 LP             1 <1>                0.0000
@<TRIPOS>BOND
    1    1   14 1     
    2    1   28 1     
    3    1   29 1     
    4    1   30 1     
    5    2   27 1     
    6    2   31 1     
    7    2   32 1     
    8    2   33 1     
    9    3   27 1     
   10    3   34 1     
   11    3   35 1     
   12    3   36 1     
   13    4    5 ar    
   14    4    6 ar    
   15    4   37 1     
   16    5    7 ar    
   17    5   38 1     
   18    6   14 ar    
   19    6   39 1     
   20    7   16 ar    
   21    7   40 1     
   22    8    9 ar    
   23    8   15 ar    
   24    8   41 1     
   25    9   17 ar    
   26    9   42 1     
   27   10   13 1     
   28   10   26 1     
   29   10   43 1     
   30   10   44 1     
   31   11   20 1     
   32   11   21 1     
   33   11   45 1     
   34   11   46 1     
   35   12   16 1     
   36   12   27 1     
   37   12   47 1     
   38   12   48 1     
   39   13   22 am    
   40   13   23 2     
   41   14   16 ar    
   42   15   18 ar    
   43   15   24 1     
   44   17   19 ar    
   45   17   20 1     
   46   18   19 ar    
   47   18   22 1     
   48   19   26 1     
   49   20   25 1     
   50   20   49 1     
   51   21   27 1     
   52   21   50 1     
   53   22   51 1     
   54   24   52 1     
   55   25   53 1     
   56   21   54 1     
   57   23   55 1     
   58   23   56 1     
   59   24   57 1     
   60   24   58 1     
   61   25   59 1     
   62   25   60 1     
   63   26   61 1     
   64   26   62 1     
@<TRIPOS>SUBSTRUCTURE
      1 ****           1
@<TRIPOS>SET
LONE_PAIRS      STATIC     ATOMS    <user>   **** ""
9 54 55 56 57 58 59 60 61 62
DONOR_HYDROGENS      STATIC     ATOMS    <user>   **** ""
4 50 51 52 53
ATOM$BLUE        STATIC     ATOMS    COLORGROUP SYSTEM
9 54 55 56 57 58 59 60 61 62
ATOM$RED        STATIC     ATOMS    COLORGROUP SYSTEM
4 50 51 52 53
@<TRIPOS>COMMENT
> <Gold.Version>
5.6

> <Gold.Id.Protein>
unknown|dok_beta2|pdb

> <Gold.Protein.RotatedTorsions>
[ 4175 4166 4165 4163 ] final   30.25 input -179.98 | X-H torsion
[ 1294 1290 1288 1285 ] final  -58.60 input -179.99 | X-H torsion
[ 4033 4024 4023 4021 ] final    8.70 input  179.98 | X-H torsion
[ 1412 1408 1406 1403 ] final   51.98 input -179.99 | X-H torsion
[ 2830 2825 2824 2821 ] final -176.21 input -179.98 | X-H torsion
[ 2723 2714 2713 2711 ] final -145.07 input -179.98 | X-H torsion
[ 2773 2768 2767 2764 ] final  -96.82 input  180.00 | X-H torsion

> <Gold.Protein.ActiveResidues>
 TRP109  THR110  ASP113  VAL114  VAL117  THR118  PHE193  TYR199  SER203  SER207 
 PHE208  TRP286  PHE289  PHE290  ASN293  TYR308  ASN312  TYR316 

> <Gold.Protein.RotatedAtoms>
  -34.6861    4.6192    2.6140 H   0  0  0  0  0  0  0  0  0  0  0  0  # atno 1294 bound_to 1290
  -28.2966   14.8232    2.8709 H   0  0  0  0  0  0  0  0  0  0  0  0  # atno 1412 bound_to 1408
  -26.5365    7.8666    2.9267 H   0  0  0  0  0  0  0  0  0  0  0  0  # atno 2723 bound_to 2714
  -24.4995   10.1509    3.8878 H   0  0  0  0  0  0  0  0  0  0  0  0  # atno 2773 bound_to 2768
  -24.9416   12.9890    2.7815 H   0  0  0  0  0  0  0  0  0  0  0  0  # atno 2830 bound_to 2825
  -29.2340    5.8135   10.6008 H   0  0  0  0  0  0  0  0  0  0  0  0  # atno 4033 bound_to 4024
  -37.7632    8.4786    7.8294 H   0  0  0  0  0  0  0  0  0  0  0  0  # atno 4175 bound_to 4166
  -36.3098    8.5721    8.4925 LP  0  0  0  0  0  0  0  0  0  0  0  0  # atno 4597 bound_to 4166
  -36.6421    9.3569    7.0996 LP  0  0  0  0  0  0  0  0  0  0  0  0  # atno 4598 bound_to 4166
  -33.9457    3.5665    1.6626 LP  0  0  0  0  0  0  0  0  0  0  0  0  # atno 4603 bound_to 1290
  -35.3463    4.2668    1.1993 LP  0  0  0  0  0  0  0  0  0  0  0  0  # atno 4604 bound_to 1290
  -27.7939    5.7183   11.2932 LP  0  0  0  0  0  0  0  0  0  0  0  0  # atno 4607 bound_to 4024
  -28.6635    7.0986   11.3659 LP  0  0  0  0  0  0  0  0  0  0  0  0  # atno 4608 bound_to 4024
  -26.7521   15.1850    3.0826 LP  0  0  0  0  0  0  0  0  0  0  0  0  # atno 4611 bound_to 1408
  -27.2759   14.5648    1.6657 LP  0  0  0  0  0  0  0  0  0  0  0  0  # atno 4612 bound_to 1408
  -23.3553   13.1587    2.9046 LP  0  0  0  0  0  0  0  0  0  0  0  0  # atno 4613 bound_to 2825
  -24.2320   14.1731    1.9724 LP  0  0  0  0  0  0  0  0  0  0  0  0  # atno 4614 bound_to 2825

> <Gold.Score>
     Fitness  S(hb_ext) S(vdw_ext)  S(hb_int)    S(int)      intcor
     62.63       1.91      44.75       0.00      -0.82     -18.47

> <Gold.Goldscore.Fitness>
62.6256

> <Gold.Goldscore.Internal.Vdw>
-14.5352

> <Gold.Goldscore.Internal.Torsion>
-4.7507

> <Gold.Goldscore.External.Vdw>
44.7536

> <Gold.Goldscore.Internal.HBond>
0.0000

> <Gold.Goldscore.External.HBond>
1.9090

> <Gold.Goldscore.Internal.Correction>
-18.4664

> <Gold.Goldscore.Hbonds>
donor molecule, donor type, donor heavy atom, donor atom, acceptor molecule, acceptor atom, score
      P1  H  4097  4104       L1    25  0.03
      P1  H  2768  2773       L1    24  0.44
      L1  H    21    50       P1  4098  0.49

> <Gold.Goldscore.Internal.Vdw.Weighted>
-14.5352

> <Gold.Goldscore.Internal.Torsion.Weighted>
-4.7507

> <Gold.Goldscore.External.Vdw.Weighted>
61.5362

> <Gold.Goldscore.Internal.HBond.Weighted>
0.0000

> <Gold.Goldscore.External.HBond.Weighted>
1.9090

> <Gold.Goldscore.Internal.Correction.Weighted>
-18.4664

