#       Name:                C:\Users\porto\OneDrive\projekt\beta1\ligandy\L_6h7m.pdb L_6h7m.pdb 1
#       Creating user name   student
#       Creation time:       Mon Apr 08 16:17:53 2019


#       File generated by GOLD software.
#

@<TRIPOS>MOLECULE
C:\Users\porto\OneDrive\projekt\beta1\ligandy\L_6h7m.pdb L_6h7m.pdb 1|6h7m|mol2|1|dock3
    45    45     1
SMALL
GASTEIGER


@<TRIPOS>ATOM
      1 C1         -23.4206   7.0640  16.4602 C.3            1 <1>                0.0926
      2 N1         -22.3142   9.2056  16.9722 N.3            1 <1>               -0.3086
      3 O1         -23.2716   3.1039  12.3895 O.3            1 <1>               -0.5064
      4 C2         -23.2847   5.9699  11.5850 C.3            1 <1>                0.0727
      5 O2         -23.1775   4.8887  10.6416 O.3            1 <1>               -0.3903
      6 C3         -22.2021   7.9547  16.2413 C.3            1 <1>                0.0266
      7 O3         -23.4604   6.5679  17.8039 O.3            1 <1>               -0.3859
      8 C4         -21.5528   9.4498  18.1949 C.3            1 <1>                0.0108
      9 C5         -21.3395  10.9737  18.3511 C.3            1 <1>               -0.0473
     10 C6         -20.2062   8.7036  18.1322 C.3            1 <1>               -0.0473
     11 C7         -22.3798   8.8937  19.3669 C.3            1 <1>               -0.0473
     12 C8         -23.3848   6.0034  15.4101 C.ar           1 <1>               -0.0174
     13 C9         -23.3774   4.6418  15.7208 C.ar           1 <1>               -0.0526
     14 C10        -23.3465   3.6791  14.7087 C.ar           1 <1>               -0.0195
     15 C11        -23.3063   4.0519  13.3606 C.ar           1 <1>                0.1222
     16 C12        -23.3042   5.4928  13.0205 C.ar           1 <1>                0.0195
     17 C13        -23.3443   6.4138  14.0649 C.ar           1 <1>               -0.0472
     18 H1         -24.3125   7.6687  16.2977 H              1 <1>                0.0656
     19 HN1        -23.3024   9.2647  17.1723 H              1 <1>                0.1225
     20 HO1        -24.1363   3.0333  11.9796 H              1 <1>                0.2921
     21 H21        -22.4513   6.6577  11.4433 H              1 <1>                0.0608
     22 H22        -24.1907   6.5410  11.3810 H              1 <1>                0.0608
     23 HO2        -22.3231   4.9268  10.2053 H              1 <1>                0.2098
     24 H31        -22.0923   8.1654  15.1775 H              1 <1>                0.0453
     25 H32        -21.3045   7.4260  16.5618 H              1 <1>                0.0453
     26 HO3        -24.3530   6.6468  18.1485 H              1 <1>                0.2103
     27 H51        -20.7721  11.1706  19.2605 H              1 <1>                0.0247
     28 H52        -20.7890  11.3546  17.4904 H              1 <1>                0.0247
     29 H53        -22.3070  11.4718  18.4124 H              1 <1>                0.0247
     30 H61        -19.6441   8.8903  19.0473 H              1 <1>                0.0247
     31 H62        -20.3874   7.6335  18.0301 H              1 <1>                0.0247
     32 H63        -19.6332   9.0579  17.2750 H              1 <1>                0.0247
     33 H71        -21.8433   9.0578  20.3008 H              1 <1>                0.0247
     34 H72        -23.3424   9.4039  19.4068 H              1 <1>                0.0247
     35 H73        -22.5410   7.8252  19.2234 H              1 <1>                0.0247
     36 H9         -23.3959   4.3231  16.7524 H              1 <1>                0.0622
     37 H10        -23.3534   2.6290  14.9622 H              1 <1>                0.0654
     38 H13        -23.3443   7.4659  13.8210 H              1 <1>                0.0626
     39 ****       -21.8973   9.9024  16.3886 LP             1 <1>                0.0000
     40 ****       -23.0207   2.2236  12.7920 LP             1 <1>                0.0000
     41 ****       -22.5952   3.3594  11.6986 LP             1 <1>                0.0000
     42 ****       -23.9039   4.9690   9.9590 LP             1 <1>                0.0000
     43 ****       -23.2673   4.0167  11.1228 LP             1 <1>                0.0000
     44 ****       -22.8347   7.1001  18.3742 LP             1 <1>                0.0000
     45 ****       -23.1836   5.6070  17.8126 LP             1 <1>                0.0000
@<TRIPOS>BOND
    1    1    6 1     
    2    1    7 1     
    3    1   12 1     
    4    1   18 1     
    5    2    8 1     
    6    2    6 1     
    7    2   19 1     
    8    3   15 1     
    9    3   20 1     
   10    4   16 1     
   11    4    5 1     
   12    4   21 1     
   13    4   22 1     
   14    5   23 1     
   15    6   24 1     
   16    6   25 1     
   17    7   26 1     
   18    8    9 1     
   19    8   10 1     
   20    8   11 1     
   21    9   27 1     
   22    9   28 1     
   23    9   29 1     
   24   10   30 1     
   25   10   31 1     
   26   10   32 1     
   27   11   33 1     
   28   11   34 1     
   29   11   35 1     
   30   12   13 ar    
   31   12   17 ar    
   32   13   14 ar    
   33   13   36 1     
   34   14   15 ar    
   35   14   37 1     
   36   15   16 ar    
   37   16   17 ar    
   38   17   38 1     
   39    2   39 1     
   40    3   40 1     
   41    3   41 1     
   42    5   42 1     
   43    5   43 1     
   44    7   44 1     
   45    7   45 1     
@<TRIPOS>SUBSTRUCTURE
      1 ****           1
@<TRIPOS>SET
LONE_PAIRS      STATIC     ATOMS    <user>   **** ""
7 39 40 41 42 43 44 45
DONOR_HYDROGENS      STATIC     ATOMS    <user>   **** ""
4 19 20 23 26
ATOM$BLUE        STATIC     ATOMS    COLORGROUP SYSTEM
7 39 40 41 42 43 44 45
ATOM$RED        STATIC     ATOMS    COLORGROUP SYSTEM
4 19 20 23 26
@<TRIPOS>COMMENT
> <Gold.Version>
5.5

> <Gold.Id.Protein>
unknown|bialko_beta1|pdb

> <Gold.Protein.ActiveResidues>
 ALA86   ASP87   VAL90   VAL94   VAL95   GLY98   ALA99   LEU101  VAL102  CYS114 
 GLU115  TRP117  THR118  SER119  LEU120  ASP121  VAL122  CYS124  VAL125  THR126 
 SER128  SER173  PHE174  ILE177  CYS199  ASP200  PHE201  TYR207  SER215  PHE299 
 TRP303  PHE306  PHE307  ASN310  PHE325  VAL326  ASN329  TRP330  GLY332  TYR333 
 SER336 

> <Gold.Score>
     Score     S(PLP)   S(hbond)     S(cho)   S(metal)  DE(clash)   DE(tors)     intcor
     56.71     -55.46       1.00       0.00       0.00       0.01       0.91       0.07

> <Gold.PLP.Fitness>
56.7129

> <Gold.PLP.PLP>
-55.4581

> <Gold.PLP.part.hbond>
-2.0175

> <Gold.PLP.part.metal>
0.0000

> <Gold.PLP.part.buried>
-4.4211

> <Gold.PLP.part.nonpolar>
-48.5569

> <Gold.PLP.part.repulsive>
0.0000

> <Gold.PLP.ligand.clash>
0.0055

> <Gold.PLP.ligand.torsion>
0.9057

> <Gold.PLP.Chemscore.Hbond>
1.0000

> <Gold.PLP.Chemscore.CHOScore>
0.0000

> <Gold.PLP.Chemscore.Metal>
0.0000

> <Gold.Chemscore.Hbonds>
donor molecule, donor type, donor heavy atom, donor atom, acceptor molecule, acceptor atom, score
      L1  H     7    26       P1  2066  1.00

> <Gold.PLP.Chemscore.Internal.Correction>
0.0718

