#       Name:                C:\Users\porto\OneDrive\projekt\beta1\ligandy\L_6h7n.pdb L_6h7n.pdb 1
#       Creating user name   student
#       Creation time:       Mon Apr 08 15:00:13 2019


#       File generated by GOLD software.
#

@<TRIPOS>MOLECULE
C:\Users\porto\OneDrive\projekt\beta1\ligandy\L_6h7n.pdb L_6h7n.pdb 1|6h7n|mol2|1|dock6
    60    61     1
SMALL
GASTEIGER


@<TRIPOS>ATOM
      1 C1         -24.8112  10.8266  23.9164 C.3            1 <1>                0.0396
      2 N1         -24.5556  10.1698  22.6673 N.am           1 <1>               -0.2813
      3 O1         -23.2375   9.3562  25.0252 O.3            1 <1>               -0.3767
      4 C2         -23.6033  10.7084  24.8054 C.3            1 <1>                0.0635
      5 N2         -24.7538  10.1232  20.3496 N.am           1 <1>               -0.2980
      6 O2         -24.8370  12.0482  21.4399 O.2            1 <1>               -0.2526
      7 C3         -23.0084   8.6749  23.7751 C.3            1 <1>                0.0635
      8 N3         -23.9930   8.8850  17.4210 N.3            1 <1>               -0.3119
      9 O3         -23.1618   4.6747  15.1579 O.3            1 <1>               -0.4894
     10 C4         -24.2136   8.7675  22.8813 C.3            1 <1>                0.0396
     11 O4         -23.4167   3.8818   9.7047 O.3            1 <1>               -0.5068
     12 C5         -24.7027  10.8263  21.4650 C.2            1 <1>                0.3024
     13 O5         -24.1867   5.8946  17.4621 O.3            1 <1>               -0.3872
     14 C6         -24.4970  10.7095  19.0401 C.3            1 <1>                0.0256
     15 C7         -23.4419   9.9525  18.2593 C.3            1 <1>                0.0116
     16 C8         -22.9781   7.9416  16.9511 C.3            1 <1>                0.0252
     17 C9         -23.5901   6.6523  16.4184 C.3            1 <1>                0.1015
     18 C10        -22.5239   5.8214  15.7381 C.3            1 <1>                0.1166
     19 C11        -23.2305   4.5456  13.7924 C.ar           1 <1>                0.1209
     20 C12        -23.2335   3.2489  13.2954 C.ar           1 <1>               -0.0165
     21 C13        -23.3000   3.0207  11.9283 C.ar           1 <1>               -0.0167
     22 C14        -23.3561   4.0879  11.0464 C.ar           1 <1>                0.1171
     23 C15        -23.3507   5.3794  11.5397 C.ar           1 <1>               -0.0167
     24 C16        -23.2878   5.6118  12.9028 C.ar           1 <1>               -0.0165
     25 H11        -25.6826  10.3688  24.3836 H              1 <1>                0.0488
     26 H12        -25.0136  11.8804  23.7262 H              1 <1>                0.0488
     27 H21        -23.8151  11.1867  25.7617 H              1 <1>                0.0575
     28 H22        -22.7723  11.2382  24.3392 H              1 <1>                0.0575
     29 HN2        -24.9776   9.1384  20.3832 H              1 <1>                0.1503
     30 H31        -22.7726   7.6269  23.9589 H              1 <1>                0.0575
     31 H32        -22.1464   9.1060  23.2671 H              1 <1>                0.0575
     32 HN3        -24.6766   8.3607  17.9484 H              1 <1>                0.1221
     33 H41        -24.0019   8.2944  21.9220 H              1 <1>                0.0488
     34 H42        -25.0580   8.2538  23.3414 H              1 <1>                0.0488
     35 HO4        -23.5605   2.9493   9.5299 H              1 <1>                0.2921
     36 HO5        -24.8422   6.4317  17.9134 H              1 <1>                0.2100
     37 H61        -24.1833  11.7464  19.1630 H              1 <1>                0.0475
     38 H62        -25.4230  10.7349  18.4665 H              1 <1>                0.0475
     39 H71        -22.8829  10.6501  17.6351 H              1 <1>                0.0439
     40 H72        -22.7137   9.5302  18.9510 H              1 <1>                0.0439
     41 H81        -22.2943   7.7081  17.7673 H              1 <1>                0.0450
     42 H82        -22.3819   8.4110  16.1684 H              1 <1>                0.0450
     43 H9         -24.3572   6.9047  15.6867 H              1 <1>                0.0640
     44 H101       -22.0512   6.4107  14.9518 H              1 <1>                0.0723
     45 H102       -21.7918   5.4948  16.4770 H              1 <1>                0.0723
     46 H12        -23.1842   2.4101  13.9739 H              1 <1>                0.0655
     47 H13        -23.3081   2.0095  11.5497 H              1 <1>                0.0655
     48 H15        -23.3962   6.2173  10.8596 H              1 <1>                0.0655
     49 H16        -23.2839   6.6258  13.2745 H              1 <1>                0.0655
     50 ****       -23.9785   8.8897  25.5083 LP             1 <1>                0.0000
     51 ****       -22.4068   9.3268  25.5812 LP             1 <1>                0.0000
     52 ****       -24.8396  12.5686  22.2938 LP             1 <1>                0.0000
     53 ****       -24.9436  12.5216  20.5655 LP             1 <1>                0.0000
     54 ****       -24.3981   9.3334  16.6243 LP             1 <1>                0.0000
     55 ****       -24.1027   4.6654  15.4966 LP             1 <1>                0.0000
     56 ****       -22.6765   3.8702  15.5001 LP             1 <1>                0.0000
     57 ****       -22.5568   4.1709   9.2841 LP             1 <1>                0.0000
     58 ****       -24.1713   4.4132   9.3198 LP             1 <1>                0.0000
     59 ****       -23.4822   5.6116  18.1130 LP             1 <1>                0.0000
     60 ****       -24.6281   5.0848  17.0756 LP             1 <1>                0.0000
@<TRIPOS>BOND
    1    2    1 1     
    2    1    4 1     
    3    1   25 1     
    4    1   26 1     
    5    2   10 1     
    6    2   12 am    
    7    4    3 1     
    8    3    7 1     
    9    4   27 1     
   10    4   28 1     
   11    5   12 am    
   12    5   14 1     
   13    5   29 1     
   14    6   12 2     
   15    7   10 1     
   16    7   30 1     
   17    7   31 1     
   18    8   16 1     
   19    8   15 1     
   20    8   32 1     
   21    9   18 1     
   22    9   19 1     
   23   10   33 1     
   24   10   34 1     
   25   11   22 1     
   26   11   35 1     
   27   13   17 1     
   28   13   36 1     
   29   14   15 1     
   30   14   37 1     
   31   14   38 1     
   32   15   39 1     
   33   15   40 1     
   34   16   17 1     
   35   16   41 1     
   36   16   42 1     
   37   17   18 1     
   38   17   43 1     
   39   18   44 1     
   40   18   45 1     
   41   19   20 ar    
   42   19   24 ar    
   43   20   21 ar    
   44   20   46 1     
   45   21   22 ar    
   46   21   47 1     
   47   22   23 ar    
   48   23   24 ar    
   49   23   48 1     
   50   24   49 1     
   51    3   50 1     
   52    3   51 1     
   53    6   52 1     
   54    6   53 1     
   55    8   54 1     
   56    9   55 1     
   57    9   56 1     
   58   11   57 1     
   59   11   58 1     
   60   13   59 1     
   61   13   60 1     
@<TRIPOS>SUBSTRUCTURE
      1 ****           1
@<TRIPOS>SET
LONE_PAIRS      STATIC     ATOMS    <user>   **** ""
11 50 51 52 53 54 55 56 57 58 59 60
DONOR_HYDROGENS      STATIC     ATOMS    <user>   **** ""
4 29 32 35 36
ATOM$BLUE        STATIC     ATOMS    COLORGROUP SYSTEM
11 50 51 52 53 54 55 56 57 58 59 60
ATOM$RED        STATIC     ATOMS    COLORGROUP SYSTEM
4 29 32 35 36
@<TRIPOS>COMMENT
> <Gold.Version>
5.5

> <Gold.Id.Protein>
unknown|bialko_beta1|pdb

> <Gold.Protein.ActiveResidues>
 ALA86   ASP87   VAL90   VAL94   VAL95   GLY98   ALA99   LEU101  VAL102  CYS114 
 GLU115  TRP117  THR118  SER119  LEU120  ASP121  VAL122  CYS124  VAL125  THR126 
 SER128  SER173  PHE174  ILE177  CYS199  ASP200  PHE201  TYR207  SER215  PHE299 
 TRP303  PHE306  PHE307  ASN310  PHE325  VAL326  ASN329  TRP330  GLY332  TYR333 
 SER336 

> <Gold.Score>
     Score     S(PLP)   S(hbond)     S(cho)   S(metal)  DE(clash)   DE(tors)     intcor
     74.91     -69.94       2.98       0.00       0.00       0.00       2.45       0.93

> <Gold.PLP.Fitness>
74.9086

> <Gold.PLP.PLP>
-69.9412

> <Gold.PLP.part.hbond>
-5.3039

> <Gold.PLP.part.metal>
0.0000

> <Gold.PLP.part.buried>
-8.1485

> <Gold.PLP.part.nonpolar>
-58.8464

> <Gold.PLP.part.repulsive>
0.5838

> <Gold.PLP.ligand.clash>
0.0000

> <Gold.PLP.ligand.torsion>
2.4476

> <Gold.PLP.Chemscore.Hbond>
2.9760

> <Gold.PLP.Chemscore.CHOScore>
0.0000

> <Gold.PLP.Chemscore.Metal>
0.0000

> <Gold.Chemscore.Hbonds>
donor molecule, donor type, donor heavy atom, donor atom, acceptor molecule, acceptor atom, score
      L1  H     5    29       P1  2066  0.98
      L1  H     8    32       P1  2066  1.00
      L1  H    13    36       P1  2066  1.00

> <Gold.PLP.Chemscore.Internal.Correction>
0.9345

