#       Name:                C:\Users\porto\OneDrive\projekt\beta2\ligandy\L_4lde.pdb L_4lde.pdb 1
#       Creating user name   student
#       Creation time:       Mon Apr 08 15:46:05 2019


#       File generated by GOLD software.
#

@<TRIPOS>MOLECULE
C:\Users\porto\OneDrive\projekt\beta2\ligandy\L_4lde.pdb L_4lde.pdb 1|4lde|mol2|1|dock3
    62    64     1
SMALL
GASTEIGER


@<TRIPOS>ATOM
      1 CAA        -34.9377   3.4480   6.4777 C.3            1 <1>               -0.0395
      2 CAB        -33.1943   6.4238   5.8510 C.3            1 <1>               -0.0467
      3 CAC        -32.1554   5.9402   8.0676 C.3            1 <1>               -0.0467
      4 CAG        -34.5659   2.4521  10.0914 C.ar           1 <1>               -0.0615
      5 CAH        -34.4469   3.6817  10.7291 C.ar           1 <1>               -0.0615
      6 CAI        -34.7261   2.3870   8.7137 C.ar           1 <1>               -0.0586
      7 CAJ        -34.4974   4.8471   9.9867 C.ar           1 <1>               -0.0583
      8 CAK        -29.6798  12.4740   5.9973 C.ar           1 <1>               -0.0178
      9 CAL        -30.7311  11.8165   6.6306 C.ar           1 <1>               -0.0490
     10 CAM        -27.7345   8.3561   7.8871 C.3            1 <1>                0.1656
     11 CAN        -32.2932   8.8024   6.8659 C.3            1 <1>                0.0267
     12 CAO        -34.6920   6.0851   7.8253 C.3            1 <1>               -0.0096
     13 CAS        -26.6809   8.9797   6.9913 C.2            1 <1>                0.2550
     14 CAT        -34.7671   3.5565   7.9696 C.ar           1 <1>               -0.0472
     15 CAU        -28.4509  11.8433   5.8439 C.ar           1 <1>                0.1416
     16 CAV        -34.6396   4.7881   8.6026 C.ar           1 <1>               -0.0427
     17 CAW        -30.5608  10.5234   7.1129 C.ar           1 <1>                0.0258
     18 CAX        -28.2738  10.5631   6.3287 C.ar           1 <1>                0.1180
     19 CAY        -29.3172   9.9054   6.9594 C.ar           1 <1>                0.1515
     20 CAZ        -31.6985   9.8482   7.7935 C.3            1 <1>                0.0960
     21 NAP        -33.2686   8.0275   7.6030 N.3            1 <1>               -0.3080
     22 NAQ        -27.0801   9.9456   6.1696 N.am           1 <1>               -0.2769
     23 OAD        -25.5205   8.6010   7.0342 O.2            1 <1>               -0.2717
     24 OAE        -27.4154  12.4791   5.2250 O.3            1 <1>               -0.5048
     25 OAF        -32.7467  10.7705   8.1334 O.3            1 <1>               -0.3858
     26 OAR        -29.0517   8.6369   7.4008 O.3            1 <1>               -0.4804
     27 CBA        -33.3310   6.6019   7.3579 C.3            1 <1>                0.0176
     28 HAA1       -34.9510   4.4456   6.0397 H              1 <1>                0.0278
     29 HAA2       -34.1096   2.8776   6.0571 H              1 <1>                0.0278
     30 HAA3       -35.8768   2.9417   6.2547 H              1 <1>                0.0278
     31 HAB1       -34.0379   6.8989   5.3500 H              1 <1>                0.0247
     32 HAB2       -32.2657   6.8837   5.5126 H              1 <1>                0.0247
     33 HAB3       -33.1816   5.3607   5.6098 H              1 <1>                0.0247
     34 HAC1       -32.2599   6.0716   9.1445 H              1 <1>                0.0247
     35 HAC2       -32.1402   4.8764   7.8312 H              1 <1>                0.0247
     36 HAC3       -31.2243   6.3994   7.7350 H              1 <1>                0.0247
     37 HAG        -34.5339   1.5391  10.6677 H              1 <1>                0.0618
     38 HAH        -34.3161   3.7244  11.8002 H              1 <1>                0.0618
     39 HAI        -34.8180   1.4280   8.2254 H              1 <1>                0.0620
     40 HAJ        -34.4261   5.8048  10.4804 H              1 <1>                0.0620
     41 HAK        -29.8174  13.4780   5.6232 H              1 <1>                0.0655
     42 HAL        -31.6841  12.3107   6.7487 H              1 <1>                0.0623
     43 HAM1       -27.6295   8.7491   8.8982 H              1 <1>                0.0795
     44 HAM2       -27.5850   7.2770   7.9271 H              1 <1>                0.0795
     45 HAN1       -31.5024   8.1433   6.5068 H              1 <1>                0.0453
     46 HAN2       -32.7818   9.2976   6.0261 H              1 <1>                0.0453
     47 HAO1       -35.1794   6.8492   8.4309 H              1 <1>                0.0331
     48 HAO2       -35.3469   5.9633   6.9629 H              1 <1>                0.0331
     49 HAZ        -31.3383   9.3619   8.7003 H              1 <1>                0.0657
     50 HNAP       -33.0901   8.1157   8.5933 H              1 <1>                0.1225
     51 HNAQ       -26.4876  10.2345   5.4041 H              1 <1>                0.1551
     52 HOAE       -26.6497  11.9008   5.2069 H              1 <1>                0.2922
     53 HOAF       -32.4006  11.4467   8.7214 H              1 <1>                0.2103
     54 ****       -34.1323   8.4145   7.2802 LP             1 <1>                0.0000
     55 ****       -25.2555   7.8718   7.6650 LP             1 <1>                0.0000
     56 ****       -24.8354   9.0203   6.4384 LP             1 <1>                0.0000
     57 ****       -27.1901  13.3147   5.7259 LP             1 <1>                0.0000
     58 ****       -27.6791  12.7123   4.2890 LP             1 <1>                0.0000
     59 ****       -33.4878  10.2789   8.5907 LP             1 <1>                0.0000
     60 ****       -33.0958  11.2000   7.3005 LP             1 <1>                0.0000
     61 ****       -29.6912   8.4409   8.1442 LP             1 <1>                0.0000
     62 ****       -29.2262   8.0141   6.6381 LP             1 <1>                0.0000
@<TRIPOS>BOND
    1    1   14 1     
    2    1   28 1     
    3    1   29 1     
    4    1   30 1     
    5    2   27 1     
    6    2   31 1     
    7    2   32 1     
    8    2   33 1     
    9    3   27 1     
   10    3   34 1     
   11    3   35 1     
   12    3   36 1     
   13    4    5 ar    
   14    4    6 ar    
   15    4   37 1     
   16    5    7 ar    
   17    5   38 1     
   18    6   14 ar    
   19    6   39 1     
   20    7   16 ar    
   21    7   40 1     
   22    8    9 ar    
   23    8   15 ar    
   24    8   41 1     
   25    9   17 ar    
   26    9   42 1     
   27   10   13 1     
   28   10   26 1     
   29   10   43 1     
   30   10   44 1     
   31   11   20 1     
   32   11   21 1     
   33   11   45 1     
   34   11   46 1     
   35   12   16 1     
   36   12   27 1     
   37   12   47 1     
   38   12   48 1     
   39   13   22 am    
   40   13   23 2     
   41   14   16 ar    
   42   15   18 ar    
   43   15   24 1     
   44   17   19 ar    
   45   17   20 1     
   46   18   19 ar    
   47   18   22 1     
   48   19   26 1     
   49   20   25 1     
   50   20   49 1     
   51   21   27 1     
   52   21   50 1     
   53   22   51 1     
   54   24   52 1     
   55   25   53 1     
   56   21   54 1     
   57   23   55 1     
   58   23   56 1     
   59   24   57 1     
   60   24   58 1     
   61   25   59 1     
   62   25   60 1     
   63   26   61 1     
   64   26   62 1     
@<TRIPOS>SUBSTRUCTURE
      1 ****           1
@<TRIPOS>SET
LONE_PAIRS      STATIC     ATOMS    <user>   **** ""
9 54 55 56 57 58 59 60 61 62
DONOR_HYDROGENS      STATIC     ATOMS    <user>   **** ""
4 50 51 52 53
ATOM$BLUE        STATIC     ATOMS    COLORGROUP SYSTEM
9 54 55 56 57 58 59 60 61 62
ATOM$RED        STATIC     ATOMS    COLORGROUP SYSTEM
4 50 51 52 53
@<TRIPOS>COMMENT
> <Gold.Version>
5.5

> <Gold.Id.Protein>
unknown|dok_beta2|pdb

> <Gold.Protein.RotatedTorsions>
[ 4175 4166 4165 4163 ] final  -38.76 input -179.98 | X-H torsion
[ 1294 1290 1288 1285 ] final -169.71 input -179.99 | X-H torsion
[ 4033 4024 4023 4021 ] final -175.26 input  179.98 | X-H torsion
[ 1412 1408 1406 1403 ] final  129.15 input -179.99 | X-H torsion
[ 2830 2825 2824 2821 ] final  -68.25 input -179.98 | X-H torsion
[ 2723 2714 2713 2711 ] final  -39.57 input -179.98 | X-H torsion
[ 2773 2768 2767 2764 ] final -149.05 input  180.00 | X-H torsion

> <Gold.Protein.ActiveResidues>
 TRP109  THR110  ASP113  VAL114  VAL117  THR118  PHE193  TYR199  SER203  SER207 
 PHE208  TRP286  PHE289  PHE290  ASN293  TYR308  ASN312  TYR316 

> <Gold.Protein.RotatedAtoms>
  -33.9204    3.6374    1.7909 H   0  0  0  0  0  0  0  0  0  0  0  0  # atno 1294 bound_to 1290
  -27.9248   14.5206    1.8490 H   0  0  0  0  0  0  0  0  0  0  0  0  # atno 1412 bound_to 1408
  -25.9526    8.3390    1.6974 H   0  0  0  0  0  0  0  0  0  0  0  0  # atno 2723 bound_to 2714
  -24.7349    9.5547    3.4151 H   0  0  0  0  0  0  0  0  0  0  0  0  # atno 2773 bound_to 2768
  -24.4177   14.1123    2.0040 H   0  0  0  0  0  0  0  0  0  0  0  0  # atno 2830 bound_to 2825
  -27.9542    6.6425   11.5751 H   0  0  0  0  0  0  0  0  0  0  0  0  # atno 4033 bound_to 4024
  -37.0499    8.2818    8.5386 H   0  0  0  0  0  0  0  0  0  0  0  0  # atno 4175 bound_to 4166
  -36.0773    9.2011    7.6611 LP  0  0  0  0  0  0  0  0  0  0  0  0  # atno 4597 bound_to 4166
  -37.6182    8.9331    7.1918 LP  0  0  0  0  0  0  0  0  0  0  0  0  # atno 4598 bound_to 4166
  -35.2714    4.1709    1.1189 LP  0  0  0  0  0  0  0  0  0  0  0  0  # atno 4603 bound_to 1290
  -34.8185    4.6856    2.6009 LP  0  0  0  0  0  0  0  0  0  0  0  0  # atno 4604 bound_to 1290
  -29.3699    6.6410   10.8281 LP  0  0  0  0  0  0  0  0  0  0  0  0  # atno 4607 bound_to 4024
  -28.4205    5.3125   10.8162 LP  0  0  0  0  0  0  0  0  0  0  0  0  # atno 4608 bound_to 4024
  -27.8901   15.0647    3.3537 LP  0  0  0  0  0  0  0  0  0  0  0  0  # atno 4611 bound_to 1408
  -26.5253   15.0005    2.4594 LP  0  0  0  0  0  0  0  0  0  0  0  0  # atno 4612 bound_to 1408
  -24.8489   12.8502    2.8879 LP  0  0  0  0  0  0  0  0  0  0  0  0  # atno 4613 bound_to 2825
  -23.2846   13.3104    2.7996 LP  0  0  0  0  0  0  0  0  0  0  0  0  # atno 4614 bound_to 2825

> <Gold.Score>
     Score     S(PLP)   S(hbond)     S(cho)   S(metal)  DE(clash)   DE(tors)     intcor
     76.50     -73.61       0.96       0.00       0.00       0.00       0.00       0.00

> <Gold.PLP.Fitness>
76.5011

> <Gold.PLP.PLP>
-73.6109

> <Gold.PLP.part.hbond>
-3.4431

> <Gold.PLP.part.metal>
0.0000

> <Gold.PLP.part.buried>
-8.8245

> <Gold.PLP.part.nonpolar>
-62.9571

> <Gold.PLP.part.repulsive>
0.0665

> <Gold.PLP.ligand.clash>
0.0000

> <Gold.PLP.ligand.torsion>
0.0000

> <Gold.PLP.Chemscore.Hbond>
0.9634

> <Gold.PLP.Chemscore.CHOScore>
0.0000

> <Gold.PLP.Chemscore.Metal>
0.0000

> <Gold.Chemscore.Hbonds>
donor molecule, donor type, donor heavy atom, donor atom, acceptor molecule, acceptor atom, score
      L1  H    21    50       P1  4098  0.91
      P1  H  4097  4104       L1    25  0.05

> <Gold.PLP.Chemscore.Internal.Correction>
0.0000

