#       Name:                C:\Users\porto\OneDrive\projekt\beta1\ligandy\L_3zpq.pdb L_3zpq.pdb 1
#       Creating user name   mateusz
#       Creation time:       Wed Apr  3 10:13:46 2019


#       File generated by GOLD software.
#

@<TRIPOS>MOLECULE
C:\Users\porto\OneDrive\projekt\beta1\ligandy\L_3zpq.pdb L_3zpq.pdb 1|3zpq|mol2|1|dock1
    31    33     1
SMALL
GASTEIGER


@<TRIPOS>ATOM
      1 C1         -22.7858   2.3069  12.6836 C.ar           1 <1>               -0.0580
      2 C2         -23.0365   2.9366  13.8873 C.ar           1 <1>               -0.0400
      3 C3         -23.3012   4.3030  13.8996 C.ar           1 <1>                0.0390
      4 C4         -23.2907   4.9883  12.7480 C.ar           1 <1>                0.0207
      5 C5         -23.4862   6.2836  12.4782 C.ar           1 <1>               -0.0349
      6 C6         -23.3704   6.4656  11.1627 C.ar           1 <1>                0.0028
      7 N7         -23.1025   5.2825  10.6129 N.pl3          1 <1>               -0.3606
      8 C8         -23.0469   4.3744  11.5826 C.ar           1 <1>                0.0482
      9 C9         -22.7966   3.0696  11.5287 C.ar           1 <1>               -0.0377
     10 N10        -23.4974   4.9129  15.0852 N.pl3          1 <1>               -0.3270
     11 C11        -24.5090   4.3003  16.0061 C.3            1 <1>                0.0248
     12 C12        -24.4165   4.6692  17.4635 C.3            1 <1>                0.0117
     13 N13        -23.6372   5.9048  17.6896 N.3            1 <1>               -0.3130
     14 C14        -23.7041   6.7660  16.5069 C.3            1 <1>                0.0117
     15 C15        -22.8816   6.2184  15.4181 C.3            1 <1>                0.0248
     16 H1         -22.5880   1.2457  12.6600 H              1 <1>                0.0619
     17 H2         -23.0257   2.3695  14.8057 H              1 <1>                0.0636
     18 H5         -23.6970   6.9767  13.2799 H              1 <1>                0.0639
     19 H6         -23.4946   7.4515  10.7408 H              1 <1>                0.0807
     20 HN7        -22.9814   5.2062   9.6134 H              1 <1>                0.1653
     21 H9         -22.6011   2.6057  10.5728 H              1 <1>                0.0638
     22 H111       -24.4722   3.2156  15.9077 H              1 <1>                0.0476
     23 H112       -25.5100   4.5288  15.6409 H              1 <1>                0.0476
     24 H121       -23.9614   3.8480  18.0169 H              1 <1>                0.0439
     25 H122       -25.4202   4.7949  17.8698 H              1 <1>                0.0439
     26 HN13       -24.0163   6.4017  18.4834 H              1 <1>                0.1220
     27 H141       -23.3486   7.7640  16.7638 H              1 <1>                0.0439
     28 H142       -24.7394   6.8468  16.1749 H              1 <1>                0.0439
     29 H151       -22.9420   6.8780  14.5530 H              1 <1>                0.0476
     30 H152       -21.8658   6.0579  15.7783 H              1 <1>                0.0476
     31 ****       -22.6839   5.6595  17.8655 LP             1 <1>                0.0000
@<TRIPOS>BOND
    1    1    2 ar    
    2    1    9 ar    
    3    1   16 1     
    4    2    3 ar    
    5    2   17 1     
    6    3    4 ar    
    7    3   10 1     
    8    4    5 ar    
    9    4    8 ar    
   10    5    6 ar    
   11    5   18 1     
   12    6    7 ar    
   13    6   19 1     
   14    7    8 ar    
   15    7   20 1     
   16    8    9 ar    
   17    9   21 1     
   18   10   11 1     
   19   10   15 1     
   20   11   12 1     
   21   11   22 1     
   22   11   23 1     
   23   12   13 1     
   24   12   24 1     
   25   12   25 1     
   26   13   14 1     
   27   13   26 1     
   28   14   15 1     
   29   14   27 1     
   30   14   28 1     
   31   15   29 1     
   32   15   30 1     
   33   13   31 1     
@<TRIPOS>SUBSTRUCTURE
      1 ****           1
@<TRIPOS>SET
LONE_PAIRS      STATIC     ATOMS    <user>   **** ""
1 31
DONOR_HYDROGENS      STATIC     ATOMS    <user>   **** ""
2 20 26
ATOM$BLUE        STATIC     ATOMS    COLORGROUP SYSTEM
1 31
ATOM$RED        STATIC     ATOMS    COLORGROUP SYSTEM
2 20 26
@<TRIPOS>COMMENT
> <Gold.Version>
5.5

> <Gold.Id.Protein>
unknown|bialko_beta1|pdb

> <Gold.Protein.ActiveResidues>
 ALA86   ASP87   VAL90   VAL94   VAL95   GLY98   ALA99   LEU101  VAL102  CYS114 
 GLU115  TRP117  THR118  SER119  LEU120  ASP121  VAL122  CYS124  VAL125  THR126 
 SER128  SER173  PHE174  ILE177  CYS199  ASP200  PHE201  TYR207  SER215  PHE299 
 TRP303  PHE306  PHE307  ASN310  PHE325  VAL326  ASN329  TRP330  GLY332  TYR333 
 SER336 

> <Gold.Score>
     Score     S(PLP)   S(hbond)     S(cho)   S(metal)  DE(clash)   DE(tors)     intcor
     55.13     -53.73       0.61       0.00       0.00       0.00       0.78       1.13

> <Gold.PLP.Fitness>
55.1302

> <Gold.PLP.PLP>
-53.7263

> <Gold.PLP.part.hbond>
-3.1806

> <Gold.PLP.part.metal>
0.0000

> <Gold.PLP.part.buried>
-0.9755

> <Gold.PLP.part.nonpolar>
-49.2168

> <Gold.PLP.part.repulsive>
0.0000

> <Gold.PLP.ligand.clash>
0.0000

> <Gold.PLP.ligand.torsion>
0.7829

> <Gold.PLP.Chemscore.Hbond>
0.6126

> <Gold.PLP.Chemscore.CHOScore>
0.0000

> <Gold.PLP.Chemscore.Metal>
0.0000

> <Gold.Chemscore.Hbonds>
donor molecule, donor type, donor heavy atom, donor atom, acceptor molecule, acceptor atom, score
      L1  H    13    26       P1  2066  0.61

> <Gold.PLP.Chemscore.Internal.Correction>
1.1321

