#       Name:                C:\Users\porto\OneDrive\projekt\beta2\ligandy\L_4ldo.pdb L_4ldo.pdb 1
#       Creating user name   student
#       Creation time:       Mon Apr 01 15:23:36 2019


#       File generated by GOLD software.
#

@<TRIPOS>MOLECULE
C:\Users\porto\OneDrive\projekt\beta2\ligandy\L_4ldo.pdb L_4ldo.pdb 1|4ldo|mol2|1|dock5
    33    33     1
SMALL
GASTEIGER


@<TRIPOS>ATOM
      1 C1         -28.1370   9.9225   6.1087 C.ar           1 <1>               -0.0143
      2 N1         -24.5019   9.3441   6.3005 N.3            1 <1>               -0.3162
      3 O1         -31.4689   9.0359   7.3506 O.3            1 <1>               -0.5033
      4 C2         -29.1871   9.1357   6.5733 C.ar           1 <1>               -0.0109
      5 O2         -31.7801  11.6186   7.0763 O.3            1 <1>               -0.5033
      6 C3         -30.3990   9.7390   6.8900 C.ar           1 <1>                0.1586
      7 O3         -26.6419   9.4835   4.3953 O.3            1 <1>               -0.3859
      8 C4         -30.5632  11.1082   6.7441 C.ar           1 <1>                0.1582
      9 C5         -29.5200  11.8997   6.2797 C.ar           1 <1>               -0.0162
     10 C6         -28.3052  11.2975   5.9634 C.ar           1 <1>               -0.0524
     11 C7         -26.9204   9.3261   5.7894 C.3            1 <1>                0.0927
     12 C8         -25.7986   9.9613   6.6135 C.3            1 <1>                0.0258
     13 C9         -24.5434   7.9140   6.6338 C.3            1 <1>               -0.0157
     14 HN1        -24.3059   9.4531   5.3160 H              1 <1>                0.1217
     15 HO1        -32.2795   9.4604   7.0611 H              1 <1>                0.2923
     16 H2         -29.0548   8.0696   6.6840 H              1 <1>                0.0659
     17 HO2        -32.4431  11.2918   6.4637 H              1 <1>                0.2923
     18 HO3        -27.2813  10.0857   4.0065 H              1 <1>                0.2103
     19 H5         -29.6584  12.9655   6.1691 H              1 <1>                0.0655
     20 H6         -27.4898  11.9063   5.6030 H              1 <1>                0.0622
     21 H7         -26.9744   8.2632   6.0227 H              1 <1>                0.0656
     22 H81        -25.7524  11.0291   6.4012 H              1 <1>                0.0453
     23 H82        -26.0133   9.8366   7.6747 H              1 <1>                0.0453
     24 H91        -23.5809   7.4577   6.4010 H              1 <1>                0.0388
     25 H92        -24.7538   7.7944   7.6966 H              1 <1>                0.0388
     26 H93        -25.3257   7.4270   6.0512 H              1 <1>                0.0388
     27 ****       -23.7849   9.7902   6.8361 LP             1 <1>                0.0000
     28 ****       -31.4450   9.0094   8.3499 LP             1 <1>                0.0000
     29 ****       -31.4344   8.1033   6.9915 LP             1 <1>                0.0000
     30 ****       -31.7466  12.6169   7.0296 LP             1 <1>                0.0000
     31 ****       -32.0174  11.3361   8.0058 LP             1 <1>                0.0000
     32 ****       -26.7023   8.5946   3.9410 LP             1 <1>                0.0000
     33 ****       -25.7208   9.8551   4.2794 LP             1 <1>                0.0000
@<TRIPOS>BOND
    1    1    4 ar    
    2    1   10 ar    
    3    1   11 1     
    4    2   12 1     
    5    2   13 1     
    6    2   14 1     
    7    3    6 1     
    8    3   15 1     
    9    4    6 ar    
   10    4   16 1     
   11    5    8 1     
   12    5   17 1     
   13    6    8 ar    
   14    7   11 1     
   15    7   18 1     
   16    8    9 ar    
   17    9   10 ar    
   18    9   19 1     
   19   10   20 1     
   20   11   12 1     
   21   11   21 1     
   22   12   22 1     
   23   12   23 1     
   24   13   24 1     
   25   13   25 1     
   26   13   26 1     
   27    2   27 1     
   28    3   28 1     
   29    3   29 1     
   30    5   30 1     
   31    5   31 1     
   32    7   32 1     
   33    7   33 1     
@<TRIPOS>SUBSTRUCTURE
      1 ****           1
@<TRIPOS>SET
LONE_PAIRS      STATIC     ATOMS    <user>   **** ""
7 27 28 29 30 31 32 33
DONOR_HYDROGENS      STATIC     ATOMS    <user>   **** ""
4 14 15 17 18
ATOM$BLUE        STATIC     ATOMS    COLORGROUP SYSTEM
7 27 28 29 30 31 32 33
ATOM$RED        STATIC     ATOMS    COLORGROUP SYSTEM
4 14 15 17 18
@<TRIPOS>COMMENT
> <Gold.Version>
5.5

> <Gold.Id.Protein>
unknown|dok_beta2|pdb

> <Gold.Protein.RotatedTorsions>
[ 4175 4166 4165 4163 ] final -158.04 input -179.98 | X-H torsion
[ 1294 1290 1288 1285 ] final  -46.92 input -179.99 | X-H torsion
[ 4033 4024 4023 4021 ] final -111.24 input  179.98 | X-H torsion
[ 1412 1408 1406 1403 ] final   22.22 input -179.99 | X-H torsion
[ 2830 2825 2824 2821 ] final  -60.66 input -179.98 | X-H torsion
[ 2723 2714 2713 2711 ] final -124.21 input -179.98 | X-H torsion
[ 2773 2768 2767 2764 ] final -133.84 input  180.00 | X-H torsion

> <Gold.Protein.ActiveResidues>
 TRP109  THR110  ASP113  VAL114  VAL117  THR118  PHE193  TYR199  SER203  SER207 
 PHE208  TRP286  PHE289  PHE290  ASN293  TYR308  ASN312  TYR316 

> <Gold.Protein.RotatedAtoms>
  -34.8425    4.6883    2.5459 H   0  0  0  0  0  0  0  0  0  0  0  0  # atno 1294 bound_to 1290
  -28.0414   14.9994    3.2172 H   0  0  0  0  0  0  0  0  0  0  0  0  # atno 1412 bound_to 1408
  -26.3390    8.1094    2.8300 H   0  0  0  0  0  0  0  0  0  0  0  0  # atno 2723 bound_to 2714
  -24.7066    9.6941    3.6076 H   0  0  0  0  0  0  0  0  0  0  0  0  # atno 2773 bound_to 2768
  -24.3013   14.1401    2.0024 H   0  0  0  0  0  0  0  0  0  0  0  0  # atno 2830 bound_to 2825
  -27.8309    5.7328   11.2950 H   0  0  0  0  0  0  0  0  0  0  0  0  # atno 4033 bound_to 4024
  -36.1110    9.1897    7.6831 H   0  0  0  0  0  0  0  0  0  0  0  0  # atno 4175 bound_to 4166
  -37.6113    8.9398    7.1854 LP  0  0  0  0  0  0  0  0  0  0  0  0  # atno 4597 bound_to 4166
  -37.0630    8.2480    8.5593 LP  0  0  0  0  0  0  0  0  0  0  0  0  # atno 4598 bound_to 4166
  -33.8843    3.6209    1.8360 LP  0  0  0  0  0  0  0  0  0  0  0  0  # atno 4603 bound_to 1290
  -35.2447    4.1404    1.0970 LP  0  0  0  0  0  0  0  0  0  0  0  0  # atno 4604 bound_to 1290
  -28.6627    7.0985   11.3663 LP  0  0  0  0  0  0  0  0  0  0  0  0  # atno 4607 bound_to 4024
  -29.2562    5.8024   10.5698 LP  0  0  0  0  0  0  0  0  0  0  0  0  # atno 4608 bound_to 4024
  -26.5425   15.0710    2.6611 LP  0  0  0  0  0  0  0  0  0  0  0  0  # atno 4611 bound_to 1408
  -27.7514   14.4952    1.7263 LP  0  0  0  0  0  0  0  0  0  0  0  0  # atno 4612 bound_to 1408
  -24.9301   12.9180    2.8218 LP  0  0  0  0  0  0  0  0  0  0  0  0  # atno 4613 bound_to 2825
  -23.3248   13.2136    2.8675 LP  0  0  0  0  0  0  0  0  0  0  0  0  # atno 4614 bound_to 2825

> <Gold.Score>
     Score     S(PLP)   S(hbond)     S(cho)   S(metal)  DE(clash)   DE(tors)     intcor
     51.05     -42.31       2.93       0.00       0.00       0.00       0.02       0.00

> <Gold.PLP.Fitness>
51.0467

> <Gold.PLP.PLP>
-42.3050

> <Gold.PLP.part.hbond>
-4.3370

> <Gold.PLP.part.metal>
0.0000

> <Gold.PLP.part.buried>
-4.6241

> <Gold.PLP.part.nonpolar>
-33.5951

> <Gold.PLP.part.repulsive>
0.0000

> <Gold.PLP.ligand.clash>
0.0000

> <Gold.PLP.ligand.torsion>
0.0200

> <Gold.PLP.Chemscore.Hbond>
2.9262

> <Gold.PLP.Chemscore.CHOScore>
0.0000

> <Gold.PLP.Chemscore.Metal>
0.0000

> <Gold.Chemscore.Hbonds>
donor molecule, donor type, donor heavy atom, donor atom, acceptor molecule, acceptor atom, score
      L1  H     5    17       P1  1334  0.93
      P1  H  2714  2723       L1     7  0.99
      P1  H  2768  2773       L1     7  1.00

> <Gold.PLP.Chemscore.Internal.Correction>
0.0030

