#       Name:                C:\Users\porto\OneDrive\projekt\beta1\ligandy\L_4amj.pdb L_4amj.pdb 1
#       Creating user name   student
#       Creation time:       Mon Apr 08 14:36:51 2019


#       File generated by GOLD software.
#

@<TRIPOS>MOLECULE
C:\Users\porto\OneDrive\projekt\beta1\ligandy\L_4amj.pdb L_4amj.pdb 1|4amj|mol2|1|dock3
    65    68     1
SMALL
GASTEIGER


@<TRIPOS>ATOM
      1 C1         -24.2108   5.5937  17.0155 C.3            1 <1>                0.1015
      2 N1         -23.5515   6.0385  10.1684 N.pl3          1 <1>               -0.3540
      3 O1         -23.8762   4.8955  18.2165 O.3            1 <1>               -0.3872
      4 C2         -23.8273   4.7005  15.8600 C.3            1 <1>                0.1166
      5 N2         -23.0467   7.3305  18.2706 N.3            1 <1>               -0.3102
      6 O2         -23.9787   5.4907  14.6698 O.3            1 <1>               -0.4887
      7 C3         -23.6392   4.9355  13.4787 C.ar           1 <1>                0.1303
      8 O3         -23.4104   9.5789  20.1932 O.3            1 <1>               -0.4870
      9 C4         -23.7649   5.6513  12.3067 C.ar           1 <1>                0.0490
     10 O4         -23.9960  12.1244  21.1302 O.3            1 <1>               -0.4915
     11 C5         -24.0680   6.9807  12.0757 C.ar           1 <1>                0.0109
     12 C6         -23.4256   5.0771  11.1149 C.ar           1 <1>                0.0510
     13 C7         -23.9810   7.2219  10.7219 C.ar           1 <1>                0.0476
     14 C8         -24.4725   7.9794  12.9279 C.ar           1 <1>               -0.0519
     15 C9         -24.2602   8.4840  10.2260 C.ar           1 <1>               -0.0378
     16 C10        -24.7043   9.5186  11.0704 C.ar           1 <1>               -0.0598
     17 C11        -24.7997   9.2683  12.4147 C.ar           1 <1>               -0.0611
     18 C12        -23.0305   3.7703  11.0777 C.ar           1 <1>               -0.0375
     19 C13        -22.9519   3.0418  12.2131 C.ar           1 <1>               -0.0563
     20 C14        -23.2694   3.6075  13.4372 C.ar           1 <1>               -0.0192
     21 C15        -23.3629   6.8604  16.8982 C.3            1 <1>                0.0253
     22 C16        -22.4751   8.7230  18.1935 C.3            1 <1>                0.0302
     23 C17        -22.1713   9.1600  19.6175 C.3            1 <1>                0.1022
     24 C18        -23.5530   9.8109  21.5686 C.ar           1 <1>                0.1619
     25 C19        -23.8423  11.0852  22.0438 C.ar           1 <1>                0.1615
     26 C20        -24.0093  11.3269  23.4179 C.ar           1 <1>               -0.0163
     27 C21        -23.8371  10.3114  24.3328 C.ar           1 <1>               -0.0581
     28 C22        -23.5439   9.0348  23.8586 C.ar           1 <1>               -0.0581
     29 C23        -23.4199   8.7959  22.4855 C.ar           1 <1>               -0.0163
     30 C24        -23.7030  13.4692  21.5518 C.3            1 <1>                0.0790
     31 H1         -25.2741   5.8322  16.9870 H              1 <1>                0.0640
     32 HN1        -23.3370   5.8293   9.2039 H              1 <1>                0.1659
     33 HO1        -24.1073   5.4349  18.9755 H              1 <1>                0.2100
     34 H21        -24.5068   3.8496  15.8186 H              1 <1>                0.0723
     35 H22        -22.7849   4.3995  15.9649 H              1 <1>                0.0723
     36 HN2        -22.3706   6.7120  18.6945 H              1 <1>                0.1221
     37 H8         -24.5432   7.7888  13.9886 H              1 <1>                0.0624
     38 H9         -24.1386   8.6891   9.1732 H              1 <1>                0.0638
     39 H10        -24.9609  10.4826  10.6551 H              1 <1>                0.0618
     40 H11        -25.1240  10.0506  13.0854 H              1 <1>                0.0618
     41 H12        -22.7769   3.3091  10.1348 H              1 <1>                0.0638
     42 H13        -22.6389   2.0092  12.1711 H              1 <1>                0.0619
     43 H14        -23.2318   3.0291  14.3484 H              1 <1>                0.0654
     44 H151       -23.9295   7.6289  16.3732 H              1 <1>                0.0450
     45 H152       -22.4374   6.6296  16.3709 H              1 <1>                0.0450
     46 H161       -23.2145   9.3952  17.7578 H              1 <1>                0.0457
     47 H162       -21.5514   8.7047  17.6153 H              1 <1>                0.0457
     48 H171       -21.7782   8.3132  20.1805 H              1 <1>                0.0709
     49 H172       -21.4780  10.0010  19.5989 H              1 <1>                0.0709
     50 H20        -24.2743  12.3144  23.7639 H              1 <1>                0.0655
     51 H21        -23.9298  10.5155  25.3893 H              1 <1>                0.0619
     52 H22        -23.4105   8.2183  24.5530 H              1 <1>                0.0619
     53 H23        -23.2155   7.7898  22.1513 H              1 <1>                0.0655
     54 H241       -23.8738  14.1556  20.7229 H              1 <1>                0.0660
     55 H242       -24.3515  13.7383  22.3849 H              1 <1>                0.0660
     56 H243       -22.6617  13.5327  21.8672 H              1 <1>                0.0660
     57 ****       -22.8944   4.7057  18.2291 LP             1 <1>                0.0000
     58 ****       -24.3827   4.0340  18.2534 LP             1 <1>                0.0000
     59 ****       -23.8795   7.3358  18.8242 LP             1 <1>                0.0000
     60 ****       -23.4166   6.3097  14.7852 LP             1 <1>                0.0000
     61 ****       -24.9418   5.7532  14.6098 LP             1 <1>                0.0000
     62 ****       -23.6541  10.4356  19.7387 LP             1 <1>                0.0000
     63 ****       -24.0801   8.8745  19.9578 LP             1 <1>                0.0000
     64 ****       -23.3988  11.9235  20.3537 LP             1 <1>                0.0000
     65 ****       -24.9495  12.1123  20.8293 LP             1 <1>                0.0000
@<TRIPOS>BOND
    1    1    4 1     
    2    1   21 1     
    3    1    3 1     
    4    1   31 1     
    5    2   12 ar    
    6    2   13 ar    
    7    2   32 1     
    8    3   33 1     
    9    4    6 1     
   10    4   34 1     
   11    4   35 1     
   12    5   22 1     
   13    5   21 1     
   14    5   36 1     
   15    6    7 1     
   16    7    9 ar    
   17    7   20 ar    
   18    8   24 1     
   19    8   23 1     
   20    9   11 ar    
   21    9   12 ar    
   22   10   30 1     
   23   10   25 1     
   24   11   13 ar    
   25   11   14 ar    
   26   12   18 ar    
   27   13   15 ar    
   28   14   17 ar    
   29   14   37 1     
   30   15   16 ar    
   31   15   38 1     
   32   16   17 ar    
   33   16   39 1     
   34   17   40 1     
   35   18   19 ar    
   36   18   41 1     
   37   19   20 ar    
   38   19   42 1     
   39   20   43 1     
   40   21   44 1     
   41   21   45 1     
   42   22   23 1     
   43   22   46 1     
   44   22   47 1     
   45   23   48 1     
   46   23   49 1     
   47   24   25 ar    
   48   24   29 ar    
   49   25   26 ar    
   50   26   27 ar    
   51   26   50 1     
   52   27   28 ar    
   53   27   51 1     
   54   28   29 ar    
   55   28   52 1     
   56   29   53 1     
   57   30   54 1     
   58   30   55 1     
   59   30   56 1     
   60    3   57 1     
   61    3   58 1     
   62    5   59 1     
   63    6   60 1     
   64    6   61 1     
   65    8   62 1     
   66    8   63 1     
   67   10   64 1     
   68   10   65 1     
@<TRIPOS>SUBSTRUCTURE
      1 ****           1
@<TRIPOS>SET
LONE_PAIRS      STATIC     ATOMS    <user>   **** ""
9 57 58 59 60 61 62 63 64 65
DONOR_HYDROGENS      STATIC     ATOMS    <user>   **** ""
3 32 33 36
ATOM$BLUE        STATIC     ATOMS    COLORGROUP SYSTEM
9 57 58 59 60 61 62 63 64 65
ATOM$RED        STATIC     ATOMS    COLORGROUP SYSTEM
3 32 33 36
@<TRIPOS>COMMENT
> <Gold.Version>
5.5

> <Gold.Id.Protein>
unknown|bialko_beta1|pdb

> <Gold.Protein.ActiveResidues>
 ALA86   ASP87   VAL90   VAL94   VAL95   GLY98   ALA99   LEU101  VAL102  CYS114 
 GLU115  TRP117  THR118  SER119  LEU120  ASP121  VAL122  CYS124  VAL125  THR126 
 SER128  SER173  PHE174  ILE177  CYS199  ASP200  PHE201  TYR207  SER215  PHE299 
 TRP303  PHE306  PHE307  ASN310  PHE325  VAL326  ASN329  TRP330  GLY332  TYR333 
 SER336 

> <Gold.Score>
     Score     S(PLP)   S(hbond)     S(cho)   S(metal)  DE(clash)   DE(tors)     intcor
     89.42     -89.42       0.00       0.00       0.00       0.00       0.00       0.00

> <Gold.PLP.Fitness>
89.4170

> <Gold.PLP.PLP>
-89.4170

> <Gold.PLP.part.hbond>
-5.8638

> <Gold.PLP.part.metal>
0.0000

> <Gold.PLP.part.buried>
-5.4156

> <Gold.PLP.part.nonpolar>
-79.4953

> <Gold.PLP.part.repulsive>
0.2649

> <Gold.PLP.ligand.clash>
0.0000

> <Gold.PLP.ligand.torsion>
0.0000

> <Gold.PLP.Chemscore.Hbond>
0.0000

> <Gold.PLP.Chemscore.CHOScore>
0.0000

> <Gold.PLP.Chemscore.Metal>
0.0000

> <Gold.PLP.Chemscore.Internal.Correction>
0.0000

