#       Name:                C:\Users\porto\OneDrive\projekt\beta1\ligandy\L_6ibl.pdb L_6ibl.pdb 1
#       Creating user name   student
#       Creation time:       Mon Apr 08 16:23:23 2019


#       File generated by GOLD software.
#

@<TRIPOS>MOLECULE
C:\Users\porto\OneDrive\projekt\beta1\ligandy\L_6ibl.pdb L_6ibl.pdb 1|6ibl|mol2|1|dock2
    58    59     1
SMALL
GASTEIGER


@<TRIPOS>ATOM
      1 C1         -21.5401   8.3036  16.6520 C.3            1 <1>               -0.0494
      2 N1         -23.4814   9.0644  18.0361 N.3            1 <1>               -0.3104
      3 O1         -23.0385   2.6920  13.4431 O.3            1 <1>               -0.4951
      4 C2         -22.9545   7.9817  17.1715 C.3            1 <1>                0.0089
      5 N2         -26.2935  14.2139  19.1515 N.am           1 <1>               -0.2852
      6 O2         -25.6247  14.4768  21.7200 O.3            1 <1>               -0.5049
      7 C3         -23.9447   7.6844  16.0242 C.3            1 <1>               -0.0125
      8 O3         -25.8821  14.4521  16.9387 O.2            1 <1>               -0.2792
      9 C4         -23.6981   6.3603  15.3317 C.ar           1 <1>               -0.0457
     10 O4         -20.9479  11.5984  18.3951 O.3            1 <1>               -0.3859
     11 C5         -23.5280   6.2971  13.9512 C.ar           1 <1>               -0.0551
     12 C6         -23.2997   5.0943  13.3003 C.ar           1 <1>               -0.0197
     13 C7         -23.2418   3.9136  14.0394 C.ar           1 <1>                0.1201
     14 C8         -23.3979   3.9595  15.4246 C.ar           1 <1>               -0.0197
     15 C9         -23.6295   5.1752  16.0558 C.ar           1 <1>               -0.0551
     16 C10        -22.7852   2.6161  12.0366 C.3            1 <1>                0.0788
     17 C11        -22.4613   9.7892  18.8015 C.3            1 <1>                0.0264
     18 C12        -22.3277  11.2548  18.3929 C.3            1 <1>                0.0927
     19 C13        -23.2080  12.1046  19.3041 C.ar           1 <1>               -0.0160
     20 C14        -24.3293  12.7529  18.7879 C.ar           1 <1>               -0.0312
     21 C15        -25.1382  13.5394  19.6057 C.ar           1 <1>                0.0755
     22 C16        -24.8194  13.7008  20.9585 C.ar           1 <1>                0.1380
     23 C17        -23.7033  13.0456  21.4751 C.ar           1 <1>               -0.0180
     24 C18        -22.9172  12.2617  20.6544 C.ar           1 <1>               -0.0525
     25 C19        -26.5944  14.6145  17.9174 C.2            1 <1>                0.2042
     26 H11        -21.1890   7.4866  16.0226 H              1 <1>                0.0245
     27 H12        -21.5671   9.2250  16.0695 H              1 <1>                0.0245
     28 H13        -20.8617   8.4285  17.4963 H              1 <1>                0.0245
     29 HN1        -24.1391   8.6360  18.6716 H              1 <1>                0.1223
     30 H2         -22.8816   7.0816  17.7824 H              1 <1>                0.0461
     31 HN2        -26.9377  14.3866  19.9100 H              1 <1>                0.1546
     32 HO2        -26.1018  15.0917  21.1577 H              1 <1>                0.2922
     33 H31        -23.9007   8.4895  15.2903 H              1 <1>                0.0328
     34 H32        -24.9634   7.7055  16.4115 H              1 <1>                0.0328
     35 HO4        -20.6289  11.6485  17.4908 H              1 <1>                0.2103
     36 H5         -23.5723   7.1994  13.3597 H              1 <1>                0.0621
     37 H6         -23.1686   5.0767  12.2286 H              1 <1>                0.0654
     38 H8         -23.3389   3.0506  16.0051 H              1 <1>                0.0654
     39 H9         -23.7567   5.1899  17.1284 H              1 <1>                0.0621
     40 H101       -22.6505   1.5742  11.7467 H              1 <1>                0.0660
     41 H102       -23.6297   3.0382  11.4916 H              1 <1>                0.0660
     42 H103       -21.8826   3.1789  11.7984 H              1 <1>                0.0660
     43 H111       -21.4989   9.2914  18.6837 H              1 <1>                0.0453
     44 H112       -22.6962   9.7296  19.8645 H              1 <1>                0.0453
     45 H12        -22.6994  11.3565  17.3729 H              1 <1>                0.0656
     46 H14        -24.5803  12.6488  17.7424 H              1 <1>                0.0641
     47 H17        -23.4512  13.1499  22.5197 H              1 <1>                0.0655
     48 H18        -22.0599  11.7647  21.0838 H              1 <1>                0.0622
     49 H19        -27.5279  15.1237  17.7279 H              1 <1>                0.1255
     50 ****       -23.8984   9.7536  17.4436 LP             1 <1>                0.0000
     51 ****       -22.2536   2.2743  13.9008 LP             1 <1>                0.0000
     52 ****       -23.8569   2.1450  13.6191 LP             1 <1>                0.0000
     53 ****       -25.0708  14.9875  22.3776 LP             1 <1>                0.0000
     54 ****       -26.2769  13.8993  22.2111 LP             1 <1>                0.0000
     55 ****       -25.0011  13.9884  17.0328 LP             1 <1>                0.0000
     56 ****       -26.1798  14.7828  16.0431 LP             1 <1>                0.0000
     57 ****       -20.4316  10.9012  18.8925 LP             1 <1>                0.0000
     58 ****       -20.8259  12.4851  18.8411 LP             1 <1>                0.0000
@<TRIPOS>BOND
    1    1    4 1     
    2    1   26 1     
    3    1   27 1     
    4    1   28 1     
    5    2   17 1     
    6    2    4 1     
    7    2   29 1     
    8    3   16 1     
    9    3   13 1     
   10    4    7 1     
   11    4   30 1     
   12    5   25 am    
   13    5   21 1     
   14    5   31 1     
   15    6   22 1     
   16    6   32 1     
   17    7    9 1     
   18    7   33 1     
   19    7   34 1     
   20    8   25 2     
   21    9   11 ar    
   22    9   15 ar    
   23   10   18 1     
   24   10   35 1     
   25   11   12 ar    
   26   11   36 1     
   27   12   13 ar    
   28   12   37 1     
   29   13   14 ar    
   30   14   15 ar    
   31   14   38 1     
   32   15   39 1     
   33   16   40 1     
   34   16   41 1     
   35   16   42 1     
   36   17   18 1     
   37   17   43 1     
   38   17   44 1     
   39   18   19 1     
   40   18   45 1     
   41   19   20 ar    
   42   19   24 ar    
   43   20   21 ar    
   44   20   46 1     
   45   21   22 ar    
   46   22   23 ar    
   47   23   24 ar    
   48   23   47 1     
   49   24   48 1     
   50   25   49 1     
   51    2   50 1     
   52    3   51 1     
   53    3   52 1     
   54    6   53 1     
   55    6   54 1     
   56    8   55 1     
   57    8   56 1     
   58   10   57 1     
   59   10   58 1     
@<TRIPOS>SUBSTRUCTURE
      1 ****           1
@<TRIPOS>SET
LONE_PAIRS      STATIC     ATOMS    <user>   **** ""
9 50 51 52 53 54 55 56 57 58
DONOR_HYDROGENS      STATIC     ATOMS    <user>   **** ""
4 29 31 32 35
ATOM$BLUE        STATIC     ATOMS    COLORGROUP SYSTEM
9 50 51 52 53 54 55 56 57 58
ATOM$RED        STATIC     ATOMS    COLORGROUP SYSTEM
4 29 31 32 35
@<TRIPOS>COMMENT
> <Gold.Version>
5.5

> <Gold.Id.Protein>
unknown|bialko_beta1|pdb

> <Gold.Protein.ActiveResidues>
 ALA86   ASP87   VAL90   VAL94   VAL95   GLY98   ALA99   LEU101  VAL102  CYS114 
 GLU115  TRP117  THR118  SER119  LEU120  ASP121  VAL122  CYS124  VAL125  THR126 
 SER128  SER173  PHE174  ILE177  CYS199  ASP200  PHE201  TYR207  SER215  PHE299 
 TRP303  PHE306  PHE307  ASN310  PHE325  VAL326  ASN329  TRP330  GLY332  TYR333 
 SER336 

> <Gold.Score>
     Score     S(PLP)   S(hbond)     S(cho)   S(metal)  DE(clash)   DE(tors)     intcor
     76.82     -76.41       1.00       0.00       0.00       0.00       1.53       0.48

> <Gold.PLP.Fitness>
76.8224

> <Gold.PLP.PLP>
-76.4077

> <Gold.PLP.part.hbond>
-2.9518

> <Gold.PLP.part.metal>
0.0000

> <Gold.PLP.part.buried>
-9.6810

> <Gold.PLP.part.nonpolar>
-64.7344

> <Gold.PLP.part.repulsive>
0.3903

> <Gold.PLP.ligand.clash>
0.0000

> <Gold.PLP.ligand.torsion>
1.5342

> <Gold.PLP.Chemscore.Hbond>
1.0000

> <Gold.PLP.Chemscore.CHOScore>
0.0000

> <Gold.PLP.Chemscore.Metal>
0.0000

> <Gold.Chemscore.Hbonds>
donor molecule, donor type, donor heavy atom, donor atom, acceptor molecule, acceptor atom, score
      L1  H     2    29       P1  2066  1.00

> <Gold.PLP.Chemscore.Internal.Correction>
0.4831

