#       Name:                C:\Users\porto\OneDrive\projekt\beta2\ligandy\L_3ny8.pdb L_3ny8.pdb 1
#       Creating user name   student
#       Creation time:       Mon Apr 08 15:57:38 2019


#       File generated by GOLD software.
#

@<TRIPOS>MOLECULE
C:\Users\porto\OneDrive\projekt\beta2\ligandy\L_3ny8.pdb L_3ny8.pdb 1|3ny8|mol2|1|dock63
    52    53     1
SMALL
GASTEIGER


@<TRIPOS>ATOM
      1 C1         -26.1986  10.7544   5.7674 C.3            1 <1>               -0.0268
      2 N1         -32.9498   5.4052   7.8489 N.3            1 <1>               -0.3087
      3 O1         -30.5981   9.0221   6.9079 O.3            1 <1>               -0.4891
      4 C2         -26.1386   9.4346   6.4920 C.3            1 <1>               -0.0449
      5 O2         -34.0304   8.0849   7.6017 O.3            1 <1>               -0.3869
      6 C3         -27.5061   8.7950   6.3860 C.3            1 <1>               -0.0237
      7 C4         -28.4329  10.0354   6.3368 C.ar           1 <1>               -0.0023
      8 C5         -27.6696  11.1560   5.9780 C.ar           1 <1>               -0.0378
      9 C6         -28.2893  12.3899   5.8212 C.ar           1 <1>               -0.0468
     10 C7         -27.4660  13.5999   5.4018 C.3            1 <1>               -0.0394
     11 C8         -29.6563  12.5302   6.0321 C.ar           1 <1>               -0.0551
     12 C9         -30.4255  11.4207   6.3792 C.ar           1 <1>               -0.0194
     13 C10        -29.8200  10.1627   6.5147 C.ar           1 <1>                0.1241
     14 C11        -31.9963   8.9222   6.6138 C.3            1 <1>                0.1169
     15 C12        -32.6521   7.8139   7.4834 C.3            1 <1>                0.1041
     16 C13        -32.4334   6.3862   6.8977 C.3            1 <1>                0.0342
     17 C14        -33.1846   6.2109   5.5846 C.3            1 <1>               -0.0472
     18 C15        -32.2903   5.4338   9.1414 C.3            1 <1>                0.0023
     19 C16        -33.0297   4.5055  10.0932 C.3            1 <1>               -0.0499
     20 C17        -30.8596   4.9242   9.0014 C.3            1 <1>               -0.0499
     21 H11        -26.0223  10.5870   4.7045 H              1 <1>                0.0313
     22 H12        -25.5554  11.4727   6.2759 H              1 <1>                0.0313
     23 HN1        -32.8316   4.4941   7.4304 H              1 <1>                0.1225
     24 H21        -25.8994   9.6061   7.5415 H              1 <1>                0.0272
     25 H22        -25.3991   8.7914   6.0152 H              1 <1>                0.0272
     26 HO2        -34.2558   8.2015   8.5273 H              1 <1>                0.2100
     27 H31        -27.7091   8.2321   7.2968 H              1 <1>                0.0314
     28 H32        -27.5774   8.2570   5.4403 H              1 <1>                0.0314
     29 H71        -28.1142  14.4736   5.3301 H              1 <1>                0.0278
     30 H72        -26.6884  13.7848   6.1420 H              1 <1>                0.0278
     31 H73        -27.0058  13.4082   4.4323 H              1 <1>                0.0278
     32 H8         -30.1222  13.4990   5.9270 H              1 <1>                0.0621
     33 H9         -31.4877  11.5299   6.5440 H              1 <1>                0.0654
     34 H111       -32.1295   8.6818   5.5593 H              1 <1>                0.0723
     35 H112       -32.4802   9.8777   6.8180 H              1 <1>                0.0723
     36 H12        -32.2077   7.8491   8.4781 H              1 <1>                0.0643
     37 H13        -31.3692   6.2149   6.7364 H              1 <1>                0.0484
     38 H141       -32.8172   6.9333   4.8561 H              1 <1>                0.0245
     39 H142       -33.0257   5.2015   5.2068 H              1 <1>                0.0245
     40 H143       -34.2498   6.3733   5.7503 H              1 <1>                0.0245
     41 H15        -32.2877   6.4492   9.5374 H              1 <1>                0.0455
     42 H161       -32.5419   4.5202  11.0676 H              1 <1>                0.0245
     43 H162       -34.0614   4.8396  10.1994 H              1 <1>                0.0245
     44 H163       -33.0162   3.4903   9.6954 H              1 <1>                0.0245
     45 H171       -30.3677   4.9478   9.9744 H              1 <1>                0.0245
     46 H172       -30.8726   3.9010   8.6263 H              1 <1>                0.0245
     47 H173       -30.3139   5.5594   8.3039 H              1 <1>                0.0245
     48 ****       -33.9085   5.6241   8.0305 LP             1 <1>                0.0000
     49 ****       -30.5153   8.9555   7.9022 LP             1 <1>                0.0000
     50 ****       -30.1647   8.2272   6.4833 LP             1 <1>                0.0000
     51 ****       -34.5538   7.3205   7.2251 LP             1 <1>                0.0000
     52 ****       -34.2504   8.9199   7.0974 LP             1 <1>                0.0000
@<TRIPOS>BOND
    1    1    4 1     
    2    1    8 1     
    3    1   21 1     
    4    1   22 1     
    5    2   16 1     
    6    2   18 1     
    7    2   23 1     
    8    3   13 1     
    9    3   14 1     
   10    4    6 1     
   11    4   24 1     
   12    4   25 1     
   13    5   15 1     
   14    5   26 1     
   15    6    7 1     
   16    6   27 1     
   17    6   28 1     
   18    7    8 ar    
   19    7   13 ar    
   20    8    9 ar    
   21    9   10 1     
   22    9   11 ar    
   23   10   29 1     
   24   10   30 1     
   25   10   31 1     
   26   11   12 ar    
   27   11   32 1     
   28   12   13 ar    
   29   12   33 1     
   30   14   15 1     
   31   14   34 1     
   32   14   35 1     
   33   15   16 1     
   34   15   36 1     
   35   16   17 1     
   36   16   37 1     
   37   17   38 1     
   38   17   39 1     
   39   17   40 1     
   40   18   19 1     
   41   18   20 1     
   42   18   41 1     
   43   19   42 1     
   44   19   43 1     
   45   19   44 1     
   46   20   45 1     
   47   20   46 1     
   48   20   47 1     
   49    2   48 1     
   50    3   49 1     
   51    3   50 1     
   52    5   51 1     
   53    5   52 1     
@<TRIPOS>SUBSTRUCTURE
      1 ****           1
@<TRIPOS>SET
LONE_PAIRS      STATIC     ATOMS    <user>   **** ""
5 48 49 50 51 52
DONOR_HYDROGENS      STATIC     ATOMS    <user>   **** ""
2 23 26
ATOM$BLUE        STATIC     ATOMS    COLORGROUP SYSTEM
5 48 49 50 51 52
ATOM$RED        STATIC     ATOMS    COLORGROUP SYSTEM
2 23 26
@<TRIPOS>COMMENT
> <Gold.Version>
5.5

> <Gold.Id.Protein>
unknown|dok_beta2|pdb

> <Gold.Protein.RotatedTorsions>
[ 4175 4166 4165 4163 ] final  156.11 input -179.98 | X-H torsion
[ 1294 1290 1288 1285 ] final  152.13 input -179.99 | X-H torsion
[ 4033 4024 4023 4021 ] final    4.08 input  179.98 | X-H torsion
[ 1412 1408 1406 1403 ] final -155.04 input -179.99 | X-H torsion
[ 2830 2825 2824 2821 ] final  170.39 input -179.98 | X-H torsion
[ 2723 2714 2713 2711 ] final -165.07 input -179.98 | X-H torsion
[ 2773 2768 2767 2764 ] final  120.10 input  180.00 | X-H torsion

> <Gold.Protein.ActiveResidues>
 TRP109  THR110  ASP113  VAL114  VAL117  THR118  PHE193  TYR199  SER203  SER207 
 PHE208  TRP286  PHE289  PHE290  ASN293  TYR308  ASN312  TYR316 

> <Gold.Protein.RotatedAtoms>
  -34.2326    3.5736    1.2924 H   0  0  0  0  0  0  0  0  0  0  0  0  # atno 1294 bound_to 1290
  -26.8369   14.7461    1.8912 H   0  0  0  0  0  0  0  0  0  0  0  0  # atno 1412 bound_to 1408
  -26.7206    7.6125    2.9103 H   0  0  0  0  0  0  0  0  0  0  0  0  # atno 2723 bound_to 2714
  -24.2313    9.7399    2.2430 H   0  0  0  0  0  0  0  0  0  0  0  0  # atno 2773 bound_to 2768
  -24.8085   12.8710    2.8952 H   0  0  0  0  0  0  0  0  0  0  0  0  # atno 2830 bound_to 2825
  -29.1931    5.7532   10.5992 H   0  0  0  0  0  0  0  0  0  0  0  0  # atno 4033 bound_to 4024
  -36.5742    9.3478    7.1760 H   0  0  0  0  0  0  0  0  0  0  0  0  # atno 4175 bound_to 4166
  -37.8101    8.5030    7.7415 LP  0  0  0  0  0  0  0  0  0  0  0  0  # atno 4597 bound_to 4166
  -36.3813    8.5199    8.5318 LP  0  0  0  0  0  0  0  0  0  0  0  0  # atno 4598 bound_to 4166
  -35.4702    4.5524    1.5603 LP  0  0  0  0  0  0  0  0  0  0  0  0  # atno 4603 bound_to 1290
  -34.2945    4.3705    2.6789 LP  0  0  0  0  0  0  0  0  0  0  0  0  # atno 4604 bound_to 1290
  -27.7689    5.7801   11.3295 LP  0  0  0  0  0  0  0  0  0  0  0  0  # atno 4607 bound_to 4024
  -28.7311    7.0996   11.3314 LP  0  0  0  0  0  0  0  0  0  0  0  0  # atno 4608 bound_to 4024
  -28.3530   14.6217    2.3886 LP  0  0  0  0  0  0  0  0  0  0  0  0  # atno 4611 bound_to 1408
  -27.1961   15.2085    3.3806 LP  0  0  0  0  0  0  0  0  0  0  0  0  # atno 4612 bound_to 1408
  -23.2790   13.3282    2.7869 LP  0  0  0  0  0  0  0  0  0  0  0  0  # atno 4613 bound_to 2825
  -24.4471   14.1266    1.9716 LP  0  0  0  0  0  0  0  0  0  0  0  0  # atno 4614 bound_to 2825

> <Gold.Score>
     Score     S(PLP)   S(hbond)     S(cho)   S(metal)  DE(clash)   DE(tors)     intcor
     68.01     -66.47       1.00       0.00       0.00       0.00       3.06       4.66

> <Gold.PLP.Fitness>
68.0117

> <Gold.PLP.PLP>
-66.4657

> <Gold.PLP.part.hbond>
-2.7910

> <Gold.PLP.part.metal>
0.0000

> <Gold.PLP.part.buried>
-5.6656

> <Gold.PLP.part.nonpolar>
-59.7393

> <Gold.PLP.part.repulsive>
0.0271

> <Gold.PLP.ligand.clash>
0.0000

> <Gold.PLP.ligand.torsion>
3.0566

> <Gold.PLP.Chemscore.Hbond>
1.0000

> <Gold.PLP.Chemscore.CHOScore>
0.0000

> <Gold.PLP.Chemscore.Metal>
0.0000

> <Gold.Chemscore.Hbonds>
donor molecule, donor type, donor heavy atom, donor atom, acceptor molecule, acceptor atom, score
      L1  H     5    26       P1  4098  1.00

> <Gold.PLP.Chemscore.Internal.Correction>
4.6591

