#       Name:                C:\Users\porto\OneDrive\projekt\beta2\ligandy\L_3nya.pdb L_3nya.pdb 1
#       Creating user name   student
#       Creation time:       Mon Apr 01 15:48:58 2019


#       File generated by GOLD software.
#

@<TRIPOS>MOLECULE
C:\Users\porto\OneDrive\projekt\beta2\ligandy\L_3nya.pdb L_3nya.pdb 1|3nya|mol2|1|dock22
    46    46     1
SMALL
GASTEIGER


@<TRIPOS>ATOM
      1 C1         -34.1484   5.8523   7.7200 C.3            1 <1>               -0.0499
      2 N1         -32.5117   7.7100   7.7749 N.3            1 <1>               -0.3112
      3 O1         -33.2001  10.5064   8.1462 O.3            1 <1>               -0.3872
      4 C2         -33.5163   7.0107   6.9464 C.3            1 <1>                0.0021
      5 O2         -29.8858  10.5580   6.6268 O.3            1 <1>               -0.4891
      6 C3         -32.8436   6.5160   5.6704 C.3            1 <1>               -0.0499
      7 C4         -31.8867   8.8066   7.0234 C.3            1 <1>                0.0254
      8 C5         -31.8661  10.0654   7.8738 C.3            1 <1>                0.1015
      9 C6         -31.1034  11.1264   7.1047 C.3            1 <1>                0.1166
     10 C7         -28.8750  11.3280   6.1067 C.ar           1 <1>                0.1241
     11 C8         -29.0573  12.6975   5.9249 C.ar           1 <1>               -0.0197
     12 C9         -28.0358  13.4756   5.3970 C.ar           1 <1>               -0.0583
     13 C10        -26.8240  12.8937   5.0504 C.ar           1 <1>               -0.0613
     14 C11        -26.6337  11.5345   5.2323 C.ar           1 <1>               -0.0548
     15 C12        -27.6561  10.7491   5.7610 C.ar           1 <1>               -0.0020
     16 C13        -27.4176   9.2698   5.9510 C.3            1 <1>               -0.0063
     17 C14        -26.2324   9.0797   6.8616 C.2            1 <1>               -0.0867
     18 C15        -25.1120   8.5596   6.4007 C.2            1 <1>               -0.1023
     19 H11        -34.8849   5.3530   7.0899 H              1 <1>                0.0245
     20 H12        -33.3739   5.1415   8.0076 H              1 <1>                0.0245
     21 H13        -34.6384   6.2364   8.6150 H              1 <1>                0.0245
     22 HN1        -32.9590   8.0925   8.5960 H              1 <1>                0.1223
     23 HO1        -33.5040  11.0687   7.4301 H              1 <1>                0.2100
     24 H2         -34.2998   7.7190   6.6759 H              1 <1>                0.0455
     25 H31        -32.4031   7.3598   5.1404 H              1 <1>                0.0245
     26 H32        -32.0620   5.7996   5.9254 H              1 <1>                0.0245
     27 H33        -33.5839   6.0335   5.0324 H              1 <1>                0.0245
     28 H41        -32.4556   8.9932   6.1122 H              1 <1>                0.0450
     29 H42        -30.8654   8.5301   6.7594 H              1 <1>                0.0450
     30 H5         -31.3530   9.8601   8.8135 H              1 <1>                0.0640
     31 H61        -31.7033  11.4635   6.2589 H              1 <1>                0.0723
     32 H62        -30.8783  11.9632   7.7657 H              1 <1>                0.0723
     33 H8         -29.9961  13.1581   6.1956 H              1 <1>                0.0654
     34 H9         -28.1826  14.5360   5.2552 H              1 <1>                0.0619
     35 H10        -26.0315  13.5006   4.6396 H              1 <1>                0.0618
     36 H11        -25.6910  11.0805   4.9644 H              1 <1>                0.0622
     37 H131       -27.2110   8.8080   4.9848 H              1 <1>                0.0357
     38 H132       -28.2989   8.8152   6.4023 H              1 <1>                0.0357
     39 H14        -26.3049   9.3733   7.8985 H              1 <1>                0.0570
     40 H151       -24.2670   8.4268   7.0606 H              1 <1>                0.0532
     41 H152       -25.0395   8.2660   5.3638 H              1 <1>                0.0532
     42 ****       -31.8070   7.0507   8.0372 LP             1 <1>                0.0000
     43 ****       -33.2123  11.0220   9.0030 LP             1 <1>                0.0000
     44 ****       -33.8036   9.7130   8.2261 LP             1 <1>                0.0000
     45 ****       -30.1424   9.9116   5.9083 LP             1 <1>                0.0000
     46 ****       -29.4889  10.0595   7.3975 LP             1 <1>                0.0000
@<TRIPOS>BOND
    1    1    4 1     
    2    1   19 1     
    3    1   20 1     
    4    1   21 1     
    5    2    4 1     
    6    2    7 1     
    7    2   22 1     
    8    3    8 1     
    9    3   23 1     
   10    4    6 1     
   11    4   24 1     
   12    5    9 1     
   13    5   10 1     
   14    6   25 1     
   15    6   26 1     
   16    6   27 1     
   17    7    8 1     
   18    7   28 1     
   19    7   29 1     
   20    8    9 1     
   21    8   30 1     
   22    9   31 1     
   23    9   32 1     
   24   10   11 ar    
   25   10   15 ar    
   26   11   12 ar    
   27   11   33 1     
   28   12   13 ar    
   29   12   34 1     
   30   13   14 ar    
   31   13   35 1     
   32   14   15 ar    
   33   14   36 1     
   34   15   16 1     
   35   16   17 1     
   36   16   37 1     
   37   16   38 1     
   38   17   18 2     
   39   17   39 1     
   40   18   40 1     
   41   18   41 1     
   42    2   42 1     
   43    3   43 1     
   44    3   44 1     
   45    5   45 1     
   46    5   46 1     
@<TRIPOS>SUBSTRUCTURE
      1 ****           1
@<TRIPOS>SET
LONE_PAIRS      STATIC     ATOMS    <user>   **** ""
5 42 43 44 45 46
DONOR_HYDROGENS      STATIC     ATOMS    <user>   **** ""
2 22 23
ATOM$BLUE        STATIC     ATOMS    COLORGROUP SYSTEM
5 42 43 44 45 46
ATOM$RED        STATIC     ATOMS    COLORGROUP SYSTEM
2 22 23
@<TRIPOS>COMMENT
> <Gold.Version>
5.5

> <Gold.Id.Protein>
unknown|dok_beta2|pdb

> <Gold.Protein.RotatedTorsions>
[ 4175 4166 4165 4163 ] final   28.25 input -179.98 | X-H torsion
[ 1294 1290 1288 1285 ] final -123.47 input -179.99 | X-H torsion
[ 4033 4024 4023 4021 ] final  -85.97 input  179.98 | X-H torsion
[ 1412 1408 1406 1403 ] final  -74.22 input -179.99 | X-H torsion
[ 2830 2825 2824 2821 ] final  107.14 input -179.98 | X-H torsion
[ 2723 2714 2713 2711 ] final -104.52 input -179.98 | X-H torsion
[ 2773 2768 2767 2764 ] final   69.44 input  180.00 | X-H torsion

> <Gold.Protein.ActiveResidues>
 TRP109  THR110  ASP113  VAL114  VAL117  THR118  PHE193  TYR199  SER203  SER207 
 PHE208  TRP286  PHE289  PHE290  ASN293  TYR308  ASN312  TYR316 

> <Gold.Protein.RotatedAtoms>
  -33.9658    4.0057    2.3970 H   0  0  0  0  0  0  0  0  0  0  0  0  # atno 1294 bound_to 1290
  -26.7235   15.1670    2.9805 H   0  0  0  0  0  0  0  0  0  0  0  0  # atno 1412 bound_to 1408
  -26.1704    8.2895    2.6431 H   0  0  0  0  0  0  0  0  0  0  0  0  # atno 2723 bound_to 2714
  -23.8086   10.3885    2.2465 H   0  0  0  0  0  0  0  0  0  0  0  0  # atno 2773 bound_to 2768
  -23.8896   12.7885    3.1157 H   0  0  0  0  0  0  0  0  0  0  0  0  # atno 2830 bound_to 2825
  -28.0427    5.4710   11.0866 H   0  0  0  0  0  0  0  0  0  0  0  0  # atno 4033 bound_to 4024
  -37.7563    8.4637    7.8562 H   0  0  0  0  0  0  0  0  0  0  0  0  # atno 4175 bound_to 4166
  -36.2870    8.5904    8.4776 LP  0  0  0  0  0  0  0  0  0  0  0  0  # atno 4597 bound_to 4166
  -36.6721    9.3542    7.0866 LP  0  0  0  0  0  0  0  0  0  0  0  0  # atno 4598 bound_to 4166
  -34.6989    3.7154    1.0043 LP  0  0  0  0  0  0  0  0  0  0  0  0  # atno 4603 bound_to 1290
  -35.3437    4.7572    2.0839 LP  0  0  0  0  0  0  0  0  0  0  0  0  # atno 4604 bound_to 1290
  -28.2936    6.9922   11.5167 LP  0  0  0  0  0  0  0  0  0  0  0  0  # atno 4607 bound_to 4024
  -29.4046    6.1815   10.6365 LP  0  0  0  0  0  0  0  0  0  0  0  0  # atno 4608 bound_to 4024
  -27.3754   14.5430    1.6588 LP  0  0  0  0  0  0  0  0  0  0  0  0  # atno 4611 bound_to 1408
  -28.2919   14.8485    2.9753 LP  0  0  0  0  0  0  0  0  0  0  0  0  # atno 4612 bound_to 1408
  -23.5790   14.0486    2.1798 LP  0  0  0  0  0  0  0  0  0  0  0  0  # atno 4613 bound_to 2825
  -25.1050   13.4922    2.3489 LP  0  0  0  0  0  0  0  0  0  0  0  0  # atno 4614 bound_to 2825

> <Gold.Score>
     Score     S(PLP)   S(hbond)     S(cho)   S(metal)  DE(clash)   DE(tors)     intcor
     73.64     -65.71       2.95       0.00       0.00       0.00       0.52       0.10

> <Gold.PLP.Fitness>
73.6350

> <Gold.PLP.PLP>
-65.7098

> <Gold.PLP.part.hbond>
-3.4536

> <Gold.PLP.part.metal>
0.0000

> <Gold.PLP.part.buried>
-8.4527

> <Gold.PLP.part.nonpolar>
-54.8930

> <Gold.PLP.part.repulsive>
0.0167

> <Gold.PLP.ligand.clash>
0.0000

> <Gold.PLP.ligand.torsion>
0.5152

> <Gold.PLP.Chemscore.Hbond>
2.9520

> <Gold.PLP.Chemscore.CHOScore>
0.0000

> <Gold.PLP.Chemscore.Metal>
0.0000

> <Gold.Chemscore.Hbonds>
donor molecule, donor type, donor heavy atom, donor atom, acceptor molecule, acceptor atom, score
      L1  H     2    22       P1  4098  1.00
      L1  H     3    23       P1  1334  0.99
      P1  H  4097  4104       L1     3  0.96

> <Gold.PLP.Chemscore.Internal.Correction>
0.0996

