#       Name:                C:\Users\porto\OneDrive\projekt\beta1\ligandy\L_4amj.pdb L_4amj.pdb 1
#       Creating user name   student
#       Creation time:       Mon Apr 08 14:09:15 2019


#       File generated by GOLD software.
#

@<TRIPOS>MOLECULE
C:\Users\porto\OneDrive\projekt\beta1\ligandy\L_4amj.pdb L_4amj.pdb 1|4amj|mol2|1|dock1
    65    68     1
SMALL
GASTEIGER


@<TRIPOS>ATOM
      1 C1         -22.6998   9.6203  19.1494 C.3            1 <1>                0.1015
      2 N1         -26.5191  14.9078  20.3316 N.pl3          1 <1>               -0.3540
      3 O1         -24.0019   9.5343  19.7317 O.3            1 <1>               -0.3872
      4 C2         -22.2455  11.0539  19.2855 C.3            1 <1>                0.1166
      5 N2         -23.4540   8.0081  17.4825 N.3            1 <1>               -0.3102
      6 O2         -23.3940  11.8707  19.0066 O.3            1 <1>               -0.4887
      7 C3         -23.9910  12.5192  20.0388 C.ar           1 <1>                0.1303
      8 O3         -23.8849   6.0368  14.4143 O.3            1 <1>               -0.4870
      9 C4         -24.9606  13.4717  19.8057 C.ar           1 <1>                0.0490
     10 O4         -24.2254   5.8578  11.6661 O.3            1 <1>               -0.4915
     11 C5         -25.6085  13.8512  18.6443 C.ar           1 <1>                0.0109
     12 C6         -25.5477  14.1208  20.8541 C.ar           1 <1>                0.0510
     13 C7         -26.5629  14.7929  18.9619 C.ar           1 <1>                0.0476
     14 C8         -25.3995  13.4984  17.3332 C.ar           1 <1>               -0.0519
     15 C9         -27.3410  15.3516  17.9623 C.ar           1 <1>               -0.0378
     16 C10        -27.1308  15.0314  16.6081 C.ar           1 <1>               -0.0598
     17 C11        -26.1717  14.1024  16.2984 C.ar           1 <1>               -0.0611
     18 C12        -25.1224  13.8772  22.1289 C.ar           1 <1>               -0.0375
     19 C13        -24.1375  12.9835  22.3676 C.ar           1 <1>               -0.0563
     20 C14        -23.5410  12.2959  21.3233 C.ar           1 <1>               -0.0192
     21 C15        -22.7799   9.3199  17.6525 C.3            1 <1>                0.0253
     22 C16        -23.7067   7.7720  16.0154 C.3            1 <1>                0.0302
     23 C17        -23.4484   6.2976  15.7499 C.3            1 <1>                0.1022
     24 C18        -23.5422   4.8595  13.7343 C.ar           1 <1>                0.1619
     25 C19        -23.7146   4.7630  12.3580 C.ar           1 <1>                0.1615
     26 C20        -23.3548   3.5969  11.6614 C.ar           1 <1>               -0.0163
     27 C21        -22.8700   2.4993  12.3381 C.ar           1 <1>               -0.0581
     28 C22        -22.6998   2.5931  13.7175 C.ar           1 <1>               -0.0581
     29 C23        -23.0228   3.7732  14.3966 C.ar           1 <1>               -0.0163
     30 C24        -24.4908   5.7274  10.2574 C.3            1 <1>                0.0790
     31 H1         -22.0054   8.9429  19.6465 H              1 <1>                0.0640
     32 HN1        -27.0923  15.4744  20.9401 H              1 <1>                0.1659
     33 HO1        -24.4512   8.7551  19.3977 H              1 <1>                0.2100
     34 H21        -21.4681  11.2591  18.5500 H              1 <1>                0.0723
     35 H22        -21.9128  11.2334  20.3078 H              1 <1>                0.0723
     36 HN2        -24.3329   8.0105  17.9794 H              1 <1>                0.1221
     37 H8         -24.6492  12.7624  17.0848 H              1 <1>                0.0624
     38 H9         -28.1264  16.0476  18.2154 H              1 <1>                0.0638
     39 H10        -27.7188  15.5144  15.8409 H              1 <1>                0.0618
     40 H11        -26.0015  13.8286  15.2673 H              1 <1>                0.0618
     41 H12        -25.5740  14.4007  22.9585 H              1 <1>                0.0638
     42 H13        -23.8092  12.7998  23.3797 H              1 <1>                0.0619
     43 H14        -22.7379  11.5958  21.4996 H              1 <1>                0.0654
     44 H151       -21.7733   9.2668  17.2389 H              1 <1>                0.0450
     45 H152       -23.3643  10.0957  17.1578 H              1 <1>                0.0450
     46 H161       -23.0139   8.3734  15.4265 H              1 <1>                0.0457
     47 H162       -24.7459   8.0052  15.7840 H              1 <1>                0.0457
     48 H171       -22.3796   6.0971  15.8274 H              1 <1>                0.0709
     49 H172       -24.0329   5.6957  16.4459 H              1 <1>                0.0709
     50 H20        -23.4577   3.5563  10.5876 H              1 <1>                0.0655
     51 H21        -22.6323   1.5944  11.7986 H              1 <1>                0.0619
     52 H22        -22.3149   1.7503  14.2727 H              1 <1>                0.0619
     53 H23        -22.8561   3.8195  15.4623 H              1 <1>                0.0655
     54 H241       -24.8837   6.6682   9.8727 H              1 <1>                0.0660
     55 H242       -23.5673   5.4795   9.7351 H              1 <1>                0.0660
     56 H243       -25.2224   4.9357  10.0969 H              1 <1>                0.0660
     57 ****       -24.5283  10.3504  19.4931 LP             1 <1>                0.0000
     58 ****       -23.9187   9.4704  20.7262 LP             1 <1>                0.0000
     59 ****       -22.8722   7.2814  17.8477 LP             1 <1>                0.0000
     60 ****       -24.0841  11.2783  18.5909 LP             1 <1>                0.0000
     61 ****       -23.1094  12.5654  18.3460 LP             1 <1>                0.0000
     62 ****       -24.8842   6.0659  14.4364 LP             1 <1>                0.0000
     63 ****       -23.5417   6.7920  13.8558 LP             1 <1>                0.0000
     64 ****       -25.0885   6.1063  12.1057 LP             1 <1>                0.0000
     65 ****       -23.5695   6.6050  11.7734 LP             1 <1>                0.0000
@<TRIPOS>BOND
    1    1    4 1     
    2    1   21 1     
    3    1    3 1     
    4    1   31 1     
    5    2   12 ar    
    6    2   13 ar    
    7    2   32 1     
    8    3   33 1     
    9    4    6 1     
   10    4   34 1     
   11    4   35 1     
   12    5   22 1     
   13    5   21 1     
   14    5   36 1     
   15    6    7 1     
   16    7    9 ar    
   17    7   20 ar    
   18    8   24 1     
   19    8   23 1     
   20    9   11 ar    
   21    9   12 ar    
   22   10   30 1     
   23   10   25 1     
   24   11   13 ar    
   25   11   14 ar    
   26   12   18 ar    
   27   13   15 ar    
   28   14   17 ar    
   29   14   37 1     
   30   15   16 ar    
   31   15   38 1     
   32   16   17 ar    
   33   16   39 1     
   34   17   40 1     
   35   18   19 ar    
   36   18   41 1     
   37   19   20 ar    
   38   19   42 1     
   39   20   43 1     
   40   21   44 1     
   41   21   45 1     
   42   22   23 1     
   43   22   46 1     
   44   22   47 1     
   45   23   48 1     
   46   23   49 1     
   47   24   25 ar    
   48   24   29 ar    
   49   25   26 ar    
   50   26   27 ar    
   51   26   50 1     
   52   27   28 ar    
   53   27   51 1     
   54   28   29 ar    
   55   28   52 1     
   56   29   53 1     
   57   30   54 1     
   58   30   55 1     
   59   30   56 1     
   60    3   57 1     
   61    3   58 1     
   62    5   59 1     
   63    6   60 1     
   64    6   61 1     
   65    8   62 1     
   66    8   63 1     
   67   10   64 1     
   68   10   65 1     
@<TRIPOS>SUBSTRUCTURE
      1 ****           1
@<TRIPOS>SET
LONE_PAIRS      STATIC     ATOMS    <user>   **** ""
9 57 58 59 60 61 62 63 64 65
DONOR_HYDROGENS      STATIC     ATOMS    <user>   **** ""
3 32 33 36
ATOM$BLUE        STATIC     ATOMS    COLORGROUP SYSTEM
9 57 58 59 60 61 62 63 64 65
ATOM$RED        STATIC     ATOMS    COLORGROUP SYSTEM
3 32 33 36
@<TRIPOS>COMMENT
> <Gold.Version>
5.5

> <Gold.Id.Protein>
unknown|bialko_beta1|pdb

> <Gold.Protein.ActiveResidues>
 ALA86   ASP87   VAL90   VAL94   VAL95   GLY98   ALA99   LEU101  VAL102  CYS114 
 GLU115  TRP117  THR118  SER119  LEU120  ASP121  VAL122  CYS124  VAL125  THR126 
 SER128  SER173  PHE174  ILE177  CYS199  ASP200  PHE201  TYR207  SER215  PHE299 
 TRP303  PHE306  PHE307  ASN310  PHE325  VAL326  ASN329  TRP330  GLY332  TYR333 
 SER336 

> <Gold.Score>
     Score     S(PLP)   S(hbond)     S(cho)   S(metal)  DE(clash)   DE(tors)     intcor
     91.75     -87.57       2.00       0.00       0.00       1.25       1.15       1.72

> <Gold.PLP.Fitness>
91.7507

> <Gold.PLP.PLP>
-87.5746

> <Gold.PLP.part.hbond>
-2.9793

> <Gold.PLP.part.metal>
0.0000

> <Gold.PLP.part.buried>
-9.0527

> <Gold.PLP.part.nonpolar>
-76.4625

> <Gold.PLP.part.repulsive>
0.2083

> <Gold.PLP.ligand.clash>
1.2500

> <Gold.PLP.ligand.torsion>
1.1473

> <Gold.PLP.Chemscore.Hbond>
2.0000

> <Gold.PLP.Chemscore.CHOScore>
0.0000

> <Gold.PLP.Chemscore.Metal>
0.0000

> <Gold.Chemscore.Hbonds>
donor molecule, donor type, donor heavy atom, donor atom, acceptor molecule, acceptor atom, score
      L1  H     3    33       P1  2066  1.00
      L1  H     5    36       P1  2066  1.00

> <Gold.PLP.Chemscore.Internal.Correction>
1.7207

