#       Name:                C:\Users\porto\OneDrive\projekt\beta1\ligandy\L_5a8e.pdb L_5a8e.pdb 1
#       Creating user name   student
#       Creation time:       Wed Apr 10 11:05:34 2019


#       File generated by GOLD software.
#

@<TRIPOS>MOLECULE
C:\Users\porto\OneDrive\projekt\beta1\ligandy\L_5a8e.pdb L_5a8e.pdb 1|5a8e|mol2|1|dock3
    51    52     1
SMALL
GASTEIGER


@<TRIPOS>ATOM
      1 C1         -26.1354  12.1136  14.3428 C.ar           1 <1>                0.1185
      2 N1         -26.0581  12.9540  15.3932 N.pl3          1 <1>               -0.3459
      3 O1         -23.1748   9.2461  15.9375 O.3            1 <1>               -0.4887
      4 C2         -25.3200  10.9998  14.4391 C.ar           1 <1>               -0.0151
      5 N2         -22.3033   5.1368  14.8316 N.3            1 <1>               -0.3088
      6 O2         -20.3647   6.9568  15.9239 O.3            1 <1>               -0.3872
      7 C3         -24.6553  11.1851  15.6892 C.ar           1 <1>                0.0428
      8 N3         -27.6700  12.5444  12.4132 N.1            1 <1>               -0.1893
      9 C4         -23.6446  10.4178  16.4709 C.ar           1 <1>                0.1298
     10 C5         -23.1971  10.9138  17.7086 C.ar           1 <1>               -0.0190
     11 C6         -23.6744  12.1105  18.2434 C.ar           1 <1>               -0.0534
     12 C7         -24.6210  12.8830  17.5799 C.ar           1 <1>               -0.0263
     13 C8         -25.1520  12.4514  16.2647 C.ar           1 <1>                0.0539
     14 C9         -22.0584   8.5310  16.4677 C.3            1 <1>                0.1166
     15 C10        -21.6646   7.4057  15.5327 C.3            1 <1>                0.1015
     16 C11        -22.7121   6.2922  15.6062 C.3            1 <1>                0.0256
     17 C12        -23.2126   4.0407  14.5168 C.3            1 <1>                0.0108
     18 C13        -23.9263   3.6117  15.7986 C.3            1 <1>               -0.0473
     19 C14        -22.4008   2.8447  14.0122 C.3            1 <1>               -0.0473
     20 C15        -24.2065   4.5299  13.4555 C.3            1 <1>               -0.0473
     21 C16        -26.9603  12.3156  13.3098 C.1            1 <1>                0.1171
     22 C17        -25.1301  14.1555  18.1768 C.3            1 <1>               -0.0377
     23 HN1        -26.6277  13.7871  15.4166 H              1 <1>                0.1665
     24 H2         -25.3184  10.2619  13.6509 H              1 <1>                0.0653
     25 HN2        -21.5191   4.7827  15.3621 H              1 <1>                0.1225
     26 HO2        -20.3956   6.6324  16.8264 H              1 <1>                0.2100
     27 H5         -22.4606  10.3638  18.2763 H              1 <1>                0.0654
     28 H6         -23.3082  12.4594  19.1981 H              1 <1>                0.0622
     29 H91        -22.3212   8.1187  17.4413 H              1 <1>                0.0723
     30 H92        -21.2168   9.2121  16.5908 H              1 <1>                0.0723
     31 H10        -21.6195   7.7875  14.5123 H              1 <1>                0.0640
     32 H111       -22.8578   5.9996  16.6458 H              1 <1>                0.0451
     33 H112       -23.6641   6.6647  15.2279 H              1 <1>                0.0451
     34 H131       -23.1889   3.4013  16.5732 H              1 <1>                0.0247
     35 H132       -24.5850   4.4125  16.1336 H              1 <1>                0.0247
     36 H133       -24.5147   2.7152  15.6052 H              1 <1>                0.0247
     37 H141       -21.7504   2.4835  14.8092 H              1 <1>                0.0247
     38 H142       -23.0787   2.0466  13.7085 H              1 <1>                0.0247
     39 H143       -21.7944   3.1506  13.1597 H              1 <1>                0.0247
     40 H151       -24.8662   5.2797  13.8932 H              1 <1>                0.0247
     41 H152       -23.6606   4.9697  12.6208 H              1 <1>                0.0247
     42 H153       -24.8009   3.6888  13.0976 H              1 <1>                0.0247
     43 H171       -26.1688  14.0242  18.4815 H              1 <1>                0.0278
     44 H172       -24.5266  14.4163  19.0457 H              1 <1>                0.0278
     45 H173       -25.0667  14.9544  17.4382 H              1 <1>                0.0278
     46 ****       -23.9441   8.6077  15.9600 LP             1 <1>                0.0000
     47 ****       -22.9408   9.4528  14.9875 LP             1 <1>                0.0000
     48 ****       -22.1602   5.4733  13.9009 LP             1 <1>                0.0000
     49 ****       -19.7179   7.7172  15.8653 LP             1 <1>                0.0000
     50 ****       -20.0694   6.2204  15.3152 LP             1 <1>                0.0000
     51 ****       -28.2786  12.7405  11.6443 LP             1 <1>                0.0000
@<TRIPOS>BOND
    1    1    2 ar    
    2    1    4 ar    
    3    1   21 1     
    4    2   13 ar    
    5    2   23 1     
    6    3   14 1     
    7    3    9 1     
    8    4    7 ar    
    9    4   24 1     
   10    5   17 1     
   11    5   16 1     
   12    5   25 1     
   13    6   15 1     
   14    6   26 1     
   15    7    9 ar    
   16    7   13 ar    
   17    8   21 3     
   18    9   10 ar    
   19   10   11 ar    
   20   10   27 1     
   21   11   12 ar    
   22   11   28 1     
   23   12   22 1     
   24   12   13 ar    
   25   14   15 1     
   26   14   29 1     
   27   14   30 1     
   28   15   16 1     
   29   15   31 1     
   30   16   32 1     
   31   16   33 1     
   32   17   18 1     
   33   17   19 1     
   34   17   20 1     
   35   18   34 1     
   36   18   35 1     
   37   18   36 1     
   38   19   37 1     
   39   19   38 1     
   40   19   39 1     
   41   20   40 1     
   42   20   41 1     
   43   20   42 1     
   44   22   43 1     
   45   22   44 1     
   46   22   45 1     
   47    3   46 1     
   48    3   47 1     
   49    5   48 1     
   50    6   49 1     
   51    6   50 1     
   52    8   51 1     
@<TRIPOS>SUBSTRUCTURE
      1 ****           1
@<TRIPOS>SET
LONE_PAIRS      STATIC     ATOMS    <user>   **** ""
6 46 47 48 49 50 51
DONOR_HYDROGENS      STATIC     ATOMS    <user>   **** ""
3 23 25 26
ATOM$BLUE        STATIC     ATOMS    COLORGROUP SYSTEM
6 46 47 48 49 50 51
ATOM$RED        STATIC     ATOMS    COLORGROUP SYSTEM
3 23 25 26
@<TRIPOS>COMMENT
> <Gold.Version>
5.6

> <Gold.Id.Protein>
unknown|bialko_beta1 1|pdb

> <Gold.Protein.ActiveResidues>
 ALA86   ASP87   VAL90   VAL94   VAL95   GLY98   ALA99   LEU101  VAL102  CYS114 
 GLU115  TRP117  THR118  SER119  LEU120  ASP121  VAL122  CYS124  VAL125  THR126 
 SER128  SER173  PHE174  ILE177  CYS199  ASP200  PHE201  TYR207  SER215  PHE299 
 TRP303  PHE306  PHE307  ASN310  PHE325  VAL326  ASN329  TRP330  GLY332  TYR333 
 SER336 

> <Gold.Score>
     Fitness  S(hb_ext) S(vdw_ext)  S(hb_int)    S(int)      intcor
     51.80       0.00      38.37       0.00      -0.96      -6.68

> <Gold.Goldscore.Fitness>
51.7972

> <Gold.Goldscore.Internal.Vdw>
-6.1526

> <Gold.Goldscore.Internal.Torsion>
-1.4901

> <Gold.Goldscore.External.Vdw>
38.3713

> <Gold.Goldscore.Internal.HBond>
0.0000

> <Gold.Goldscore.External.HBond>
0.0000

> <Gold.Goldscore.Internal.Correction>
-6.6793

> <Gold.Goldscore.Internal.Vdw.Weighted>
-6.1526

> <Gold.Goldscore.Internal.Torsion.Weighted>
-1.4901

> <Gold.Goldscore.External.Vdw.Weighted>
52.7606

> <Gold.Goldscore.Internal.HBond.Weighted>
0.0000

> <Gold.Goldscore.External.HBond.Weighted>
0.0000

> <Gold.Goldscore.Internal.Correction.Weighted>
-6.6793

