#       Name:                C:\Users\porto\OneDrive\projekt\beta1\ligandy\L_5a8e.pdb L_5a8e.pdb 1
#       Creating user name   student
#       Creation time:       Mon Apr 08 14:20:21 2019


#       File generated by GOLD software.
#

@<TRIPOS>MOLECULE
C:\Users\porto\OneDrive\projekt\beta1\ligandy\L_5a8e.pdb L_5a8e.pdb 1|5a8e|mol2|1|dock5
    51    52     1
SMALL
GASTEIGER


@<TRIPOS>ATOM
      1 C1         -23.6732  10.2681  22.6059 C.ar           1 <1>                0.1185
      2 N1         -24.1819  11.4766  22.2956 N.pl3          1 <1>               -0.3459
      3 O1         -23.0065   9.0529  18.4095 O.3            1 <1>               -0.4887
      4 C2         -23.3008   9.5055  21.5128 C.ar           1 <1>               -0.0151
      5 N2         -22.6998   5.4692  15.1286 N.3            1 <1>               -0.3088
      6 O2         -23.5221   6.5253  17.8023 O.3            1 <1>               -0.3872
      7 C3         -23.6315  10.3390  20.4016 C.ar           1 <1>                0.0428
      8 N3         -23.3055   9.5089  24.9622 N.1            1 <1>               -0.1893
      9 C4         -23.5248  10.2142  18.9202 C.ar           1 <1>                0.1298
     10 C5         -23.9631  11.2680  18.0983 C.ar           1 <1>               -0.0190
     11 C6         -24.4959  12.4452  18.6240 C.ar           1 <1>               -0.0534
     12 C7         -24.6251  12.6424  19.9943 C.ar           1 <1>               -0.0263
     13 C8         -24.1987  11.5892  20.9465 C.ar           1 <1>                0.0539
     14 C9         -23.0429   8.7172  17.0221 C.3            1 <1>                0.1166
     15 C10        -22.7545   7.2421  16.8319 C.3            1 <1>                0.1015
     16 C11        -23.1026   6.8357  15.3980 C.3            1 <1>                0.0256
     17 C12        -23.6190   4.4701  14.5951 C.3            1 <1>                0.0108
     18 C13        -24.5110   3.9684  15.7304 C.3            1 <1>               -0.0473
     19 C14        -22.8146   3.2772  14.0718 C.3            1 <1>               -0.0473
     20 C15        -24.4430   5.1226  13.4776 C.3            1 <1>               -0.0473
     21 C16        -23.5037   9.8527  23.8656 C.1            1 <1>                0.1171
     22 C17        -25.1857  13.9171  20.5379 C.3            1 <1>               -0.0377
     23 HN1        -24.4684  12.1077  23.0296 H              1 <1>                0.1665
     24 H2         -22.8733   8.5249  21.6589 H              1 <1>                0.0653
     25 HN2        -22.3512   5.1617  16.0261 H              1 <1>                0.1225
     26 HO2        -24.2628   7.0645  18.0870 H              1 <1>                0.2100
     27 H5         -23.8927  11.1798  17.0239 H              1 <1>                0.0654
     28 H6         -24.8210  13.2340  17.9612 H              1 <1>                0.0622
     29 H91        -22.2975   9.3047  16.4872 H              1 <1>                0.0723
     30 H92        -24.0281   8.9496  16.6185 H              1 <1>                0.0723
     31 H10        -21.6940   7.0592  17.0080 H              1 <1>                0.0640
     32 H111       -24.1768   6.9349  15.2437 H              1 <1>                0.0451
     33 H112       -22.6020   7.5064  14.6995 H              1 <1>                0.0451
     34 H131       -25.2039   3.2201  15.3458 H              1 <1>                0.0247
     35 H132       -23.8925   3.5230  16.5092 H              1 <1>                0.0247
     36 H133       -25.0737   4.8032  16.1474 H              1 <1>                0.0247
     37 H141       -23.4958   2.5262  13.6707 H              1 <1>                0.0247
     38 H142       -22.1392   3.6110  13.2838 H              1 <1>                0.0247
     39 H143       -22.2357   2.8433  14.8871 H              1 <1>                0.0247
     40 H151       -25.1380   4.3912  13.0638 H              1 <1>                0.0247
     41 H152       -25.0022   5.9659  13.8826 H              1 <1>                0.0247
     42 H153       -23.7755   5.4740  12.6904 H              1 <1>                0.0247
     43 H171       -25.2025  13.8716  21.6273 H              1 <1>                0.0278
     44 H172       -24.5638  14.7530  20.2187 H              1 <1>                0.0278
     45 H173       -26.2000  14.0566  20.1647 H              1 <1>                0.0278
     46 ****       -22.0401   9.0487  18.6665 LP             1 <1>                0.0000
     47 ****       -23.4806   8.3106  18.8829 LP             1 <1>                0.0000
     48 ****       -22.0782   5.5207  14.3469 LP             1 <1>                0.0000
     49 ****       -22.9451   6.3093  18.5900 LP             1 <1>                0.0000
     50 ****       -23.8636   5.6775  17.3968 LP             1 <1>                0.0000
     51 ****       -23.1356   9.2142  25.9026 LP             1 <1>                0.0000
@<TRIPOS>BOND
    1    1    2 ar    
    2    1    4 ar    
    3    1   21 1     
    4    2   13 ar    
    5    2   23 1     
    6    3   14 1     
    7    3    9 1     
    8    4    7 ar    
    9    4   24 1     
   10    5   17 1     
   11    5   16 1     
   12    5   25 1     
   13    6   15 1     
   14    6   26 1     
   15    7    9 ar    
   16    7   13 ar    
   17    8   21 3     
   18    9   10 ar    
   19   10   11 ar    
   20   10   27 1     
   21   11   12 ar    
   22   11   28 1     
   23   12   22 1     
   24   12   13 ar    
   25   14   15 1     
   26   14   29 1     
   27   14   30 1     
   28   15   16 1     
   29   15   31 1     
   30   16   32 1     
   31   16   33 1     
   32   17   18 1     
   33   17   19 1     
   34   17   20 1     
   35   18   34 1     
   36   18   35 1     
   37   18   36 1     
   38   19   37 1     
   39   19   38 1     
   40   19   39 1     
   41   20   40 1     
   42   20   41 1     
   43   20   42 1     
   44   22   43 1     
   45   22   44 1     
   46   22   45 1     
   47    3   46 1     
   48    3   47 1     
   49    5   48 1     
   50    6   49 1     
   51    6   50 1     
   52    8   51 1     
@<TRIPOS>SUBSTRUCTURE
      1 ****           1
@<TRIPOS>SET
LONE_PAIRS      STATIC     ATOMS    <user>   **** ""
6 46 47 48 49 50 51
DONOR_HYDROGENS      STATIC     ATOMS    <user>   **** ""
3 23 25 26
ATOM$BLUE        STATIC     ATOMS    COLORGROUP SYSTEM
6 46 47 48 49 50 51
ATOM$RED        STATIC     ATOMS    COLORGROUP SYSTEM
3 23 25 26
@<TRIPOS>COMMENT
> <Gold.Version>
5.5

> <Gold.Id.Protein>
unknown|bialko_beta1|pdb

> <Gold.Protein.ActiveResidues>
 ALA86   ASP87   VAL90   VAL94   VAL95   GLY98   ALA99   LEU101  VAL102  CYS114 
 GLU115  TRP117  THR118  SER119  LEU120  ASP121  VAL122  CYS124  VAL125  THR126 
 SER128  SER173  PHE174  ILE177  CYS199  ASP200  PHE201  TYR207  SER215  PHE299 
 TRP303  PHE306  PHE307  ASN310  PHE325  VAL326  ASN329  TRP330  GLY332  TYR333 
 SER336 

> <Gold.Score>
     Score     S(PLP)   S(hbond)     S(cho)   S(metal)  DE(clash)   DE(tors)     intcor
     61.79     -60.33       1.00       0.00       0.00       0.00       0.84       0.14

> <Gold.PLP.Fitness>
61.7908

> <Gold.PLP.PLP>
-60.3297

> <Gold.PLP.part.hbond>
-2.0000

> <Gold.PLP.part.metal>
0.0000

> <Gold.PLP.part.buried>
-7.0276

> <Gold.PLP.part.nonpolar>
-51.9158

> <Gold.PLP.part.repulsive>
0.4365

> <Gold.PLP.ligand.clash>
0.0000

> <Gold.PLP.ligand.torsion>
0.8419

> <Gold.PLP.Chemscore.Hbond>
1.0000

> <Gold.PLP.Chemscore.CHOScore>
0.0000

> <Gold.PLP.Chemscore.Metal>
0.0000

> <Gold.Chemscore.Hbonds>
donor molecule, donor type, donor heavy atom, donor atom, acceptor molecule, acceptor atom, score
      L1  H     6    26       P1  2066  1.00

> <Gold.PLP.Chemscore.Internal.Correction>
0.1450

