#       Name:                C:\Users\porto\OneDrive\projekt\beta2\ligandy\L_3d4s.pdb L_3d4s.pdb 1
#       Creating user name   student
#       Creation time:       Mon Apr 08 15:09:51 2019


#       File generated by GOLD software.
#

@<TRIPOS>MOLECULE
C:\Users\porto\OneDrive\projekt\beta2\ligandy\L_3d4s.pdb L_3d4s.pdb 1
    54    55     1
SMALL
GASTEIGER


@<TRIPOS>ATOM
      1 O1           4.1494  -1.6535   0.9690 O.3            1 <1>               -0.3767
      2 C2           4.2564  -1.4585  -0.4340 C.3            1 <1>                0.0634
      3 C3           4.1774   0.0105  -0.8870 C.3            1 <1>                0.0372
      4 N4           3.3074   0.8425  -0.0940 N.pl3          1 <1>               -0.3060
      5 C5           3.0604   0.4755   1.2860 C.3            1 <1>                0.0372
      6 C6           2.9844  -1.0395   1.4870 C.3            1 <1>                0.0634
      7 C7           2.8974   2.0845  -0.5140 C.ar           1 <1>                0.1942
      8 N8           3.7694   2.9505  -1.0570 N.ar           1 <1>               -0.1717
      9 S9           2.9854   4.3305  -1.4720 S.2            1 <1>                0.1206
     10 N10          1.4734   3.9315  -0.9890 N.ar           1 <1>               -0.1530
     11 C11          1.5064   2.7045  -0.4910 C.ar           1 <1>                0.2652
     12 O12          0.4024   2.0735   0.0300 O.3            1 <1>               -0.4710
     13 C13         -0.9036   2.6815  -0.1910 C.3            1 <1>                0.1183
     14 C14         -1.7866   1.7755   0.6800 C.3            1 <1>                0.1016
     15 O15         -2.9256   2.4175   1.1750 O.3            1 <1>               -0.3872
     16 C16         -2.1566   0.5295  -0.1040 C.3            1 <1>                0.0256
     17 N17         -3.3146  -0.2375   0.2940 N.3            1 <1>               -0.3088
     18 C18         -3.0906  -1.6335  -0.1590 C.3            1 <1>                0.0108
     19 C19         -4.4086  -2.3805  -0.2990 C.3            1 <1>               -0.0473
     20 C20         -2.3926  -1.6015  -1.5430 C.3            1 <1>               -0.0473
     21 C21         -2.1996  -2.3675   0.8640 C.3            1 <1>               -0.0473
     22 H21          3.4804  -2.0335  -0.9390 H              1 <1>                0.0575
     23 H22          5.1894  -1.8955  -0.7890 H              1 <1>                0.0575
     24 H31          3.8624   0.0495  -1.9300 H              1 <1>                0.0487
     25 H32          5.1794   0.4405  -0.8940 H              1 <1>                0.0487
     26 H51          2.1294   0.9325   1.6210 H              1 <1>                0.0487
     27 H52          3.8494   0.8855   1.9170 H              1 <1>                0.0487
     28 H61          2.8994  -1.2605   2.5510 H              1 <1>                0.0575
     29 H62          2.1074  -1.4305   0.9710 H              1 <1>                0.0575
     30 H131        -1.1836   2.5535  -1.2370 H              1 <1>                0.0724
     31 H132        -0.9036   3.6885   0.2270 H              1 <1>                0.0724
     32 H14         -1.1896   1.4595   1.5360 H              1 <1>                0.0640
     33 HO15        -3.4336   1.8025   1.7090 H              1 <1>                0.2100
     34 H161        -1.2916  -0.1315  -0.1490 H              1 <1>                0.0451
     35 H162        -2.2466   0.7875  -1.1590 H              1 <1>                0.0451
     36 HN17        -3.4146  -0.2015   1.2980 H              1 <1>                0.1225
     37 H191        -4.2156  -3.4005  -0.6320 H              1 <1>                0.0247
     38 H192        -4.9176  -2.4035   0.6650 H              1 <1>                0.0247
     39 H193        -5.0386  -1.8735  -1.0300 H              1 <1>                0.0247
     40 H201        -2.2216  -2.6215  -1.8880 H              1 <1>                0.0247
     41 H202        -3.0266  -1.0775  -2.2580 H              1 <1>                0.0247
     42 H203        -1.4376  -1.0825  -1.4570 H              1 <1>                0.0247
     43 H211        -2.0346  -3.3925   0.5330 H              1 <1>                0.0247
     44 H212        -1.2416  -1.8535   0.9470 H              1 <1>                0.0247
     45 H213        -2.6926  -2.3755   1.8360 H              1 <1>                0.0247
     46 ****         4.9520  -1.2573   1.4149 LP             1 <1>                0.0000
     47 ****         4.1126  -2.6345   1.1595 LP             1 <1>                0.0000
     48 ****         4.7460   2.7800  -1.1880 LP             1 <1>                0.0000
     49 ****         0.6636   4.5140  -1.0580 LP             1 <1>                0.0000
     50 ****         0.5364   2.0088   1.0189 LP             1 <1>                0.0000
     51 ****         0.3725   1.1545  -0.3631 LP             1 <1>                0.0000
     52 ****        -3.4862   2.7374   0.4112 LP             1 <1>                0.0000
     53 ****        -2.6506   3.1979   1.7365 LP             1 <1>                0.0000
     54 ****        -4.1517   0.1292  -0.1120 LP             1 <1>                0.0000
@<TRIPOS>BOND
    1    1    2 1     
    2    1    6 1     
    3    2    3 1     
    4    2   22 1     
    5    2   23 1     
    6    3    4 1     
    7    3   24 1     
    8    3   25 1     
    9    4    7 1     
   10    4    5 1     
   11    5    6 1     
   12    5   26 1     
   13    5   27 1     
   14    6   28 1     
   15    6   29 1     
   16    7    8 ar    
   17    7   11 ar    
   18    8    9 ar    
   19    9   10 ar    
   20   10   11 ar    
   21   11   12 1     
   22   12   13 1     
   23   13   14 1     
   24   13   30 1     
   25   13   31 1     
   26   14   15 1     
   27   14   16 1     
   28   14   32 1     
   29   15   33 1     
   30   16   17 1     
   31   16   34 1     
   32   16   35 1     
   33   17   18 1     
   34   17   36 1     
   35   18   19 1     
   36   18   20 1     
   37   18   21 1     
   38   19   37 1     
   39   19   38 1     
   40   19   39 1     
   41   20   40 1     
   42   20   41 1     
   43   20   42 1     
   44   21   43 1     
   45   21   44 1     
   46   21   45 1     
   47    1   46 1     
   48    1   47 1     
   49    8   48 1     
   50   10   49 1     
   51   12   50 1     
   52   12   51 1     
   53   15   52 1     
   54   15   53 1     
   55   17   54 1     
@<TRIPOS>SUBSTRUCTURE
      1 ****           1
@<TRIPOS>SET
LONE_PAIRS      STATIC     ATOMS    <user>   **** ""
9 46 47 48 49 50 51 52 53 54
DONOR_HYDROGENS      STATIC     ATOMS    <user>   **** ""
2 33 36
ATOM$BLUE        STATIC     ATOMS    COLORGROUP SYSTEM
9 46 47 48 49 50 51 52 53 54
ATOM$RED        STATIC     ATOMS    COLORGROUP SYSTEM
2 33 36
