#       Name:                C:\Users\porto\OneDrive\projekt\beta2\ligandy\L_3ny8.pdb L_3ny8.pdb 1
#       Creating user name   student
#       Creation time:       Wed Apr 10 09:50:58 2019


#       File generated by GOLD software.
#

@<TRIPOS>MOLECULE
C:\Users\porto\OneDrive\projekt\beta2\ligandy\L_3ny8.pdb L_3ny8.pdb 1|3ny8|mol2|1|dock3
    52    53     1
SMALL
GASTEIGER


@<TRIPOS>ATOM
      1 C1         -25.7697   9.4264   5.5682 C.3            1 <1>               -0.0268
      2 N1         -33.4909   7.4270   8.1658 N.3            1 <1>               -0.3087
      3 O1         -30.1422  10.0791   7.5963 O.3            1 <1>               -0.4891
      4 C2         -26.4077   8.1423   6.0262 C.3            1 <1>               -0.0449
      5 O2         -33.7542  10.1360   8.1934 O.3            1 <1>               -0.3869
      6 C3         -27.4843   8.4989   7.0282 C.3            1 <1>               -0.0237
      7 C4         -27.9395   9.8905   6.5221 C.ar           1 <1>               -0.0023
      8 C5         -26.9459  10.4131   5.6816 C.ar           1 <1>               -0.0378
      9 C6         -27.1438  11.6411   5.0618 C.ar           1 <1>               -0.0468
     10 C7         -26.0784  12.1941   4.1254 C.3            1 <1>               -0.0394
     11 C8         -28.3100  12.3663   5.2784 C.ar           1 <1>               -0.0551
     12 C9         -29.3080  11.8510   6.1040 C.ar           1 <1>               -0.0194
     13 C10        -29.1356  10.6004   6.7154 C.ar           1 <1>                0.1241
     14 C11        -31.4578  10.6418   7.6592 C.3            1 <1>                0.1169
     15 C12        -32.4412   9.6399   8.3251 C.3            1 <1>                0.1041
     16 C13        -32.3433   8.2096   7.7137 C.3            1 <1>                0.0342
     17 C14        -32.3766   8.2601   6.1920 C.3            1 <1>               -0.0472
     18 C15        -33.2401   5.9993   8.2349 C.3            1 <1>                0.0023
     19 C16        -32.7143   5.6571   9.6209 C.3            1 <1>               -0.0499
     20 C17        -34.5436   5.2362   8.0229 C.3            1 <1>               -0.0499
     21 H11        -25.4835   9.3303   4.5205 H              1 <1>                0.0313
     22 H12        -24.9926   9.7133   6.2767 H              1 <1>                0.0313
     23 HN1        -33.7597   7.7271   9.0916 H              1 <1>                0.1225
     24 H21        -25.6573   7.5157   6.5083 H              1 <1>                0.0272
     25 H22        -26.8592   7.6370   5.1725 H              1 <1>                0.0272
     26 HO2        -33.9027  10.4131   7.2866 H              1 <1>                0.2100
     27 H31        -27.0334   8.6063   8.0144 H              1 <1>                0.0314
     28 H32        -28.3110   7.7945   6.9313 H              1 <1>                0.0314
     29 H71        -26.3100  13.2317   3.8837 H              1 <1>                0.0278
     30 H72        -25.1050  12.1434   4.6118 H              1 <1>                0.0278
     31 H73        -26.0575  11.6035   3.2094 H              1 <1>                0.0278
     32 H8         -28.4425  13.3290   4.8068 H              1 <1>                0.0621
     33 H9         -30.2140  12.4150   6.2730 H              1 <1>                0.0654
     34 H111       -31.8027  10.8730   6.6517 H              1 <1>                0.0723
     35 H112       -31.4313  11.5646   8.2395 H              1 <1>                0.0723
     36 H12        -32.2020   9.5770   9.3866 H              1 <1>                0.0643
     37 H13        -31.4212   7.7318   8.0441 H              1 <1>                0.0484
     38 H141       -32.3853   7.2455   5.7945 H              1 <1>                0.0245
     39 H142       -33.2734   8.7855   5.8652 H              1 <1>                0.0245
     40 H143       -31.4942   8.7851   5.8259 H              1 <1>                0.0245
     41 H15        -32.5113   5.7106   7.4776 H              1 <1>                0.0455
     42 H161       -31.8576   6.2901   9.8512 H              1 <1>                0.0245
     43 H162       -33.4979   5.8253  10.3591 H              1 <1>                0.0245
     44 H163       -32.4101   4.6103   9.6466 H              1 <1>                0.0245
     45 H171       -34.9230   5.4351   7.0200 H              1 <1>                0.0245
     46 H172       -34.3627   4.1676   8.1370 H              1 <1>                0.0245
     47 H173       -35.2785   5.5604   8.7594 H              1 <1>                0.0245
     48 ****       -34.2082   7.5834   7.4869 LP             1 <1>                0.0000
     49 ****       -29.7658  10.1421   8.5206 LP             1 <1>                0.0000
     50 ****       -30.2601   9.1173   7.3493 LP             1 <1>                0.0000
     51 ****       -33.8781  10.9174   8.8050 LP             1 <1>                0.0000
     52 ****       -34.4074   9.4179   8.4335 LP             1 <1>                0.0000
@<TRIPOS>BOND
    1    1    4 1     
    2    1    8 1     
    3    1   21 1     
    4    1   22 1     
    5    2   16 1     
    6    2   18 1     
    7    2   23 1     
    8    3   13 1     
    9    3   14 1     
   10    4    6 1     
   11    4   24 1     
   12    4   25 1     
   13    5   15 1     
   14    5   26 1     
   15    6    7 1     
   16    6   27 1     
   17    6   28 1     
   18    7    8 ar    
   19    7   13 ar    
   20    8    9 ar    
   21    9   10 1     
   22    9   11 ar    
   23   10   29 1     
   24   10   30 1     
   25   10   31 1     
   26   11   12 ar    
   27   11   32 1     
   28   12   13 ar    
   29   12   33 1     
   30   14   15 1     
   31   14   34 1     
   32   14   35 1     
   33   15   16 1     
   34   15   36 1     
   35   16   17 1     
   36   16   37 1     
   37   17   38 1     
   38   17   39 1     
   39   17   40 1     
   40   18   19 1     
   41   18   20 1     
   42   18   41 1     
   43   19   42 1     
   44   19   43 1     
   45   19   44 1     
   46   20   45 1     
   47   20   46 1     
   48   20   47 1     
   49    2   48 1     
   50    3   49 1     
   51    3   50 1     
   52    5   51 1     
   53    5   52 1     
@<TRIPOS>SUBSTRUCTURE
      1 ****           1
@<TRIPOS>SET
LONE_PAIRS      STATIC     ATOMS    <user>   **** ""
5 48 49 50 51 52
DONOR_HYDROGENS      STATIC     ATOMS    <user>   **** ""
2 23 26
ATOM$BLUE        STATIC     ATOMS    COLORGROUP SYSTEM
5 48 49 50 51 52
ATOM$RED        STATIC     ATOMS    COLORGROUP SYSTEM
2 23 26
@<TRIPOS>COMMENT
> <Gold.Version>
5.6

> <Gold.Id.Protein>
unknown|dok_beta2|pdb

> <Gold.Protein.RotatedTorsions>
[ 4175 4166 4165 4163 ] final -147.59 input -179.98 | X-H torsion
[ 1294 1290 1288 1285 ] final  113.11 input -179.99 | X-H torsion
[ 4033 4024 4023 4021 ] final   50.69 input  179.98 | X-H torsion
[ 1412 1408 1406 1403 ] final   82.55 input -179.99 | X-H torsion
[ 2830 2825 2824 2821 ] final  -78.32 input -179.98 | X-H torsion
[ 2723 2714 2713 2711 ] final  -92.68 input -179.98 | X-H torsion
[ 2773 2768 2767 2764 ] final  118.51 input  180.00 | X-H torsion

> <Gold.Protein.ActiveResidues>
 TRP109  THR110  ASP113  VAL114  VAL117  THR118  PHE193  TYR199  SER203  SER207 
 PHE208  TRP286  PHE289  PHE290  ASN293  TYR308  ASN312  TYR316 

> <Gold.Protein.RotatedAtoms>
  -34.7371    3.7687    1.0227 H   0  0  0  0  0  0  0  0  0  0  0  0  # atno 1294 bound_to 1290
  -28.3272   14.6543    2.4258 H   0  0  0  0  0  0  0  0  0  0  0  0  # atno 1412 bound_to 1408
  -26.0861    8.3655    2.4950 H   0  0  0  0  0  0  0  0  0  0  0  0  # atno 2723 bound_to 2714
  -24.2165    9.7576    2.2330 H   0  0  0  0  0  0  0  0  0  0  0  0  # atno 2773 bound_to 2768
  -24.5657   14.0574    2.0212 H   0  0  0  0  0  0  0  0  0  0  0  0  # atno 2830 bound_to 2825
  -29.3877    6.4252   10.7527 H   0  0  0  0  0  0  0  0  0  0  0  0  # atno 4033 bound_to 4024
  -36.0693    9.1138    7.8231 H   0  0  0  0  0  0  0  0  0  0  0  0  # atno 4175 bound_to 4166
  -37.4962    9.0366    7.1027 LP  0  0  0  0  0  0  0  0  0  0  0  0  # atno 4597 bound_to 4166
  -37.2215    8.2302    8.4959 LP  0  0  0  0  0  0  0  0  0  0  0  0  # atno 4598 bound_to 4166
  -35.3164    4.7656    2.1326 LP  0  0  0  0  0  0  0  0  0  0  0  0  # atno 4603 bound_to 1290
  -33.9225    3.9541    2.3877 LP  0  0  0  0  0  0  0  0  0  0  0  0  # atno 4604 bound_to 1290
  -28.2221    5.3425   10.9300 LP  0  0  0  0  0  0  0  0  0  0  0  0  # atno 4607 bound_to 4024
  -28.0752    6.8373   11.5710 LP  0  0  0  0  0  0  0  0  0  0  0  0  # atno 4608 bound_to 4024
  -27.1588   15.2108    3.3672 LP  0  0  0  0  0  0  0  0  0  0  0  0  # atno 4611 bound_to 1408
  -26.8373   14.7151    1.8449 LP  0  0  0  0  0  0  0  0  0  0  0  0  # atno 4612 bound_to 1408
  -24.7235   12.7761    2.9665 LP  0  0  0  0  0  0  0  0  0  0  0  0  # atno 4613 bound_to 2825
  -23.2557   13.4417    2.7032 LP  0  0  0  0  0  0  0  0  0  0  0  0  # atno 4614 bound_to 2825

> <Gold.Score>
     Fitness  S(hb_ext) S(vdw_ext)  S(hb_int)    S(int)      intcor
     58.39       8.41      37.74       0.00      -1.91     -11.89

> <Gold.Goldscore.Fitness>
58.3891

> <Gold.Goldscore.Internal.Vdw>
-10.3783

> <Gold.Goldscore.Internal.Torsion>
-3.4155

> <Gold.Goldscore.External.Vdw>
37.7367

> <Gold.Goldscore.Internal.HBond>
0.0000

> <Gold.Goldscore.External.HBond>
8.4098

> <Gold.Goldscore.Internal.Correction>
-11.8853

> <Gold.Goldscore.Hbonds>
donor molecule, donor type, donor heavy atom, donor atom, acceptor molecule, acceptor atom, score
      P1  H  4166  4175       L1     5  0.19
      P1  H  4097  4104       L1     5  0.24
      L1  H     2    23       P1  4098  0.99
      L1  H     5    26       P1  1334  0.93

> <Gold.Goldscore.Internal.Vdw.Weighted>
-10.3783

> <Gold.Goldscore.Internal.Torsion.Weighted>
-3.4155

> <Gold.Goldscore.External.Vdw.Weighted>
51.8879

> <Gold.Goldscore.Internal.HBond.Weighted>
0.0000

> <Gold.Goldscore.External.HBond.Weighted>
8.4098

> <Gold.Goldscore.Internal.Correction.Weighted>
-11.8853

