#       Name:                C:\Users\porto\OneDrive\projekt\beta1\ligandy\L_6ibl.pdb L_6ibl.pdb 1
#       Creating user name   student
#       Creation time:       Mon Apr 01 15:39:18 2019


#       File generated by GOLD software.
#

@<TRIPOS>MOLECULE
C:\Users\porto\OneDrive\projekt\beta1\ligandy\L_6ibl.pdb L_6ibl.pdb 1|6ibl|mol2|1|dock1
    58    59     1
SMALL
GASTEIGER


@<TRIPOS>ATOM
      1 C1         -21.2012   7.6974  15.9956 C.3            1 <1>               -0.0494
      2 N1         -23.0239   8.8393  17.2749 N.3            1 <1>               -0.3104
      3 O1         -22.9831   2.1856  13.0282 O.3            1 <1>               -0.4951
      4 C2         -22.6376   7.6080  16.5455 C.3            1 <1>                0.0089
      5 N2         -24.4914  12.3886  22.9465 N.am           1 <1>               -0.2852
      6 O2         -25.0392  14.1598  21.0289 O.3            1 <1>               -0.5049
      7 C3         -23.6687   7.2970  15.4385 C.3            1 <1>               -0.0125
      8 O3         -23.9981  10.4827  24.0630 O.2            1 <1>               -0.2792
      9 C4         -23.4914   5.9336  14.8037 C.ar           1 <1>               -0.0457
     10 O4         -22.9823   8.2044  19.8892 O.3            1 <1>               -0.3859
     11 C5         -23.3969   4.7872  15.5884 C.ar           1 <1>               -0.0551
     12 C6         -23.2361   3.5307  15.0248 C.ar           1 <1>               -0.0197
     13 C7         -23.1623   3.4041  13.6383 C.ar           1 <1>                0.1201
     14 C8         -23.2673   4.5402  12.8362 C.ar           1 <1>               -0.0197
     15 C9         -23.4243   5.7900  13.4223 C.ar           1 <1>               -0.0551
     16 C10        -23.0115   2.0897  11.6005 C.3            1 <1>                0.0788
     17 C11        -21.9603   9.4223  18.1001 C.3            1 <1>                0.0264
     18 C12        -22.2761   9.4029  19.5943 C.3            1 <1>                0.0927
     19 C13        -23.0051  10.6914  19.9628 C.ar           1 <1>               -0.0160
     20 C14        -23.3995  10.9201  21.2804 C.ar           1 <1>               -0.0312
     21 C15        -24.0735  12.0882  21.6307 C.ar           1 <1>                0.0755
     22 C16        -24.3784  13.0408  20.6522 C.ar           1 <1>                0.1380
     23 C17        -23.9763  12.8150  19.3372 C.ar           1 <1>               -0.0180
     24 C18        -23.3003  11.6572  19.0075 C.ar           1 <1>               -0.0525
     25 C19        -24.4385  11.6215  24.0340 C.2            1 <1>                0.2042
     26 H11        -20.9556   6.7764  15.4679 H              1 <1>                0.0245
     27 H12        -21.1261   8.5407  15.3085 H              1 <1>                0.0245
     28 H13        -20.5033   7.8395  16.8212 H              1 <1>                0.0245
     29 HN1        -23.8105   8.5969  17.8601 H              1 <1>                0.1223
     30 H2         -22.6642   6.7836  17.2585 H              1 <1>                0.0461
     31 HN2        -24.8715  13.3226  23.0048 H              1 <1>                0.1546
     32 HO2        -25.5670  13.9726  21.8090 H              1 <1>                0.2922
     33 H31        -23.6136   8.0649  14.6665 H              1 <1>                0.0328
     34 H32        -24.6752   7.3761  15.8496 H              1 <1>                0.0328
     35 HO4        -23.8879   8.2818  19.5794 H              1 <1>                0.2103
     36 H5         -23.4485   4.8634  16.6642 H              1 <1>                0.0621
     37 H6         -23.1687   2.6591  15.6588 H              1 <1>                0.0654
     38 H8         -23.2264   4.4477  11.7609 H              1 <1>                0.0654
     39 H9         -23.4949   6.6594  12.7851 H              1 <1>                0.0621
     40 H101       -22.8525   1.0536  11.3020 H              1 <1>                0.0660
     41 H102       -23.9798   2.4290  11.2323 H              1 <1>                0.0660
     42 H103       -22.2242   2.7141  11.1780 H              1 <1>                0.0660
     43 H111       -21.7772  10.4486  17.7821 H              1 <1>                0.0453
     44 H112       -21.0280   8.8867  17.9200 H              1 <1>                0.0453
     45 H12        -21.3318   9.3811  20.1390 H              1 <1>                0.0656
     46 H14        -23.1833  10.1875  22.0442 H              1 <1>                0.0641
     47 H17        -24.1928  13.5462  18.5730 H              1 <1>                0.0655
     48 H18        -22.9997  11.5111  17.9806 H              1 <1>                0.0622
     49 H19        -24.8019  11.9988  24.9786 H              1 <1>                0.1255
     50 ****       -23.2395   9.5418  16.5968 LP             1 <1>                0.0000
     51 ****       -22.0908   1.8435  13.3229 LP             1 <1>                0.0000
     52 ****       -23.7019   1.5817  13.3725 LP             1 <1>                0.0000
     53 ****       -25.6374  14.4597  20.2858 LP             1 <1>                0.0000
     54 ****       -24.3798  14.8819  21.2380 LP             1 <1>                0.0000
     55 ****       -23.6428  10.0626  23.2280 LP             1 <1>                0.0000
     56 ****       -23.9930   9.9703  24.9218 LP             1 <1>                0.0000
     57 ****       -22.9801   8.0508  20.8773 LP             1 <1>                0.0000
     58 ****       -22.5381   7.4345  19.4312 LP             1 <1>                0.0000
@<TRIPOS>BOND
    1    1    4 1     
    2    1   26 1     
    3    1   27 1     
    4    1   28 1     
    5    2   17 1     
    6    2    4 1     
    7    2   29 1     
    8    3   16 1     
    9    3   13 1     
   10    4    7 1     
   11    4   30 1     
   12    5   25 am    
   13    5   21 1     
   14    5   31 1     
   15    6   22 1     
   16    6   32 1     
   17    7    9 1     
   18    7   33 1     
   19    7   34 1     
   20    8   25 2     
   21    9   11 ar    
   22    9   15 ar    
   23   10   18 1     
   24   10   35 1     
   25   11   12 ar    
   26   11   36 1     
   27   12   13 ar    
   28   12   37 1     
   29   13   14 ar    
   30   14   15 ar    
   31   14   38 1     
   32   15   39 1     
   33   16   40 1     
   34   16   41 1     
   35   16   42 1     
   36   17   18 1     
   37   17   43 1     
   38   17   44 1     
   39   18   19 1     
   40   18   45 1     
   41   19   20 ar    
   42   19   24 ar    
   43   20   21 ar    
   44   20   46 1     
   45   21   22 ar    
   46   22   23 ar    
   47   23   24 ar    
   48   23   47 1     
   49   24   48 1     
   50   25   49 1     
   51    2   50 1     
   52    3   51 1     
   53    3   52 1     
   54    6   53 1     
   55    6   54 1     
   56    8   55 1     
   57    8   56 1     
   58   10   57 1     
   59   10   58 1     
@<TRIPOS>SUBSTRUCTURE
      1 ****           1
@<TRIPOS>SET
LONE_PAIRS      STATIC     ATOMS    <user>   **** ""
9 50 51 52 53 54 55 56 57 58
DONOR_HYDROGENS      STATIC     ATOMS    <user>   **** ""
4 29 31 32 35
ATOM$BLUE        STATIC     ATOMS    COLORGROUP SYSTEM
9 50 51 52 53 54 55 56 57 58
ATOM$RED        STATIC     ATOMS    COLORGROUP SYSTEM
4 29 31 32 35
@<TRIPOS>COMMENT
> <Gold.Version>
5.5

> <Gold.Id.Protein>
unknown|bialko_beta1|pdb

> <Gold.Protein.ActiveResidues>
 ALA86   ASP87   VAL90   VAL94   VAL95   GLY98   ALA99   LEU101  VAL102  CYS114 
 GLU115  TRP117  THR118  SER119  LEU120  ASP121  VAL122  CYS124  VAL125  THR126 
 SER128  SER173  PHE174  ILE177  CYS199  ASP200  PHE201  TYR207  SER215  PHE299 
 TRP303  PHE306  PHE307  ASN310  PHE325  VAL326  ASN329  TRP330  GLY332  TYR333 
 SER336 

> <Gold.Score>
     Score     S(PLP)   S(hbond)     S(cho)   S(metal)  DE(clash)   DE(tors)     intcor
     75.02     -73.18       0.98       0.00       0.00       0.00       0.98       0.86

> <Gold.PLP.Fitness>
75.0154

> <Gold.PLP.PLP>
-73.1841

> <Gold.PLP.part.hbond>
-3.7929

> <Gold.PLP.part.metal>
0.0000

> <Gold.PLP.part.buried>
-8.9442

> <Gold.PLP.part.nonpolar>
-60.0343

> <Gold.PLP.part.repulsive>
0.3514

> <Gold.PLP.ligand.clash>
0.0000

> <Gold.PLP.ligand.torsion>
0.9800

> <Gold.PLP.Chemscore.Hbond>
0.9760

> <Gold.PLP.Chemscore.CHOScore>
0.0000

> <Gold.PLP.Chemscore.Metal>
0.0000

> <Gold.Chemscore.Hbonds>
donor molecule, donor type, donor heavy atom, donor atom, acceptor molecule, acceptor atom, score
      L1  H    10    35       P1  2066  0.98

> <Gold.PLP.Chemscore.Internal.Correction>
0.8633

