#       Name:                C:\Users\porto\OneDrive\projekt\beta2\ligandy\L_3d4s.pdb L_3d4s.pdb 1
#       Creating user name   student
#       Creation time:       Mon Apr 08 15:49:55 2019


#       File generated by GOLD software.
#

@<TRIPOS>MOLECULE
C:\Users\porto\OneDrive\projekt\beta2\ligandy\L_3d4s.pdb L_3d4s.pdb 1|3d4s|mol2|1|dock4
    54    55     1
SMALL
GASTEIGER


@<TRIPOS>ATOM
      1 O1         -24.9825   9.8443   5.6849 O.3            1 <1>               -0.3767
      2 C2         -25.8993   8.8453   6.1102 C.3            1 <1>                0.0634
      3 C3         -27.3408   9.0410   5.5550 C.3            1 <1>                0.0372
      4 N4         -27.7282  10.4127   5.8616 N.pl3          1 <1>               -0.3060
      5 C5         -26.7981  11.4102   5.3571 C.3            1 <1>                0.0372
      6 C6         -25.4526  11.2069   6.0015 C.3            1 <1>                0.0634
      7 C7         -28.9729  10.7319   6.3472 C.ar           1 <1>                0.1942
      8 N8         -29.2703  11.9926   6.7043 N.ar           1 <1>               -0.1717
      9 S9         -30.8244  12.0629   7.2251 S.2            1 <1>                0.1206
     10 N10        -31.2377  10.4904   7.0378 N.ar           1 <1>               -0.1530
     11 C11        -30.1901   9.8401   6.5540 C.ar           1 <1>                0.2652
     12 O12        -30.1927   8.4889   6.3034 O.3            1 <1>               -0.4710
     13 C13        -31.4758   7.8351   6.0790 C.3            1 <1>                0.1183
     14 C14        -32.0645   7.8770   7.4970 C.3            1 <1>                0.1016
     15 O15        -33.3420   8.4421   7.5530 O.3            1 <1>               -0.3872
     16 C16        -32.0575   6.4781   8.0863 C.3            1 <1>                0.0256
     17 N17        -32.4892   6.2846   9.4515 N.3            1 <1>               -0.3088
     18 C18        -32.8994   4.8638   9.5826 C.3            1 <1>                0.0108
     19 C19        -33.9394   4.4966   8.5346 C.3            1 <1>               -0.0473
     20 C20        -31.6531   3.9650   9.3766 C.3            1 <1>               -0.0473
     21 C21        -33.4923   4.6291  10.9871 C.3            1 <1>               -0.0473
     22 H21        -25.9537   8.8446   7.1987 H              1 <1>                0.0575
     23 H22        -25.5029   7.8616   5.8598 H              1 <1>                0.0575
     24 H31        -28.0271   8.3144   5.9905 H              1 <1>                0.0487
     25 H32        -27.3772   8.8351   4.4848 H              1 <1>                0.0487
     26 H51        -27.1874  12.4065   5.5661 H              1 <1>                0.0487
     27 H52        -26.7308  11.3272   4.2720 H              1 <1>                0.0487
     28 H61        -24.6946  11.7513   5.4383 H              1 <1>                0.0575
     29 H62        -25.4784  11.5865   7.0230 H              1 <1>                0.0575
     30 H131       -31.3016   6.7966   5.7957 H              1 <1>                0.0724
     31 H132       -32.0833   8.4577   5.4217 H              1 <1>                0.0724
     32 H14        -31.4054   8.4941   8.1084 H              1 <1>                0.0640
     33 HO15       -33.7060   8.3251   8.4335 H              1 <1>                0.2100
     34 H161       -31.0647   6.0463   7.9635 H              1 <1>                0.0451
     35 H162       -32.6284   5.8159   7.4357 H              1 <1>                0.0451
     36 HN17       -33.2736   6.8835   9.6644 H              1 <1>                0.1225
     37 H191       -34.2224   3.4505   8.6532 H              1 <1>                0.0247
     38 H192       -34.8199   5.1274   8.6595 H              1 <1>                0.0247
     39 H193       -33.5223   4.6487   7.5389 H              1 <1>                0.0247
     40 H201       -31.9403   2.9175   9.4705 H              1 <1>                0.0247
     41 H202       -31.2382   4.1405   8.3842 H              1 <1>                0.0247
     42 H203       -30.9029   4.2048  10.1306 H              1 <1>                0.0247
     43 H211       -33.7943   3.5867  11.0847 H              1 <1>                0.0247
     44 H212       -32.7416   4.8625  11.7426 H              1 <1>                0.0247
     45 H213       -34.3607   5.2726  11.1275 H              1 <1>                0.0247
     46 ****       -24.8275   9.7467   4.7018 LP             1 <1>                0.0000
     47 ****       -24.1181   9.7217   6.1724 LP             1 <1>                0.0000
     48 ****       -28.6411  12.7686   6.6596 LP             1 <1>                0.0000
     49 ****       -32.1284  10.0894   7.2520 LP             1 <1>                0.0000
     50 ****       -29.7640   8.0406   7.0877 LP             1 <1>                0.0000
     51 ****       -29.6353   8.3372   5.4871 LP             1 <1>                0.0000
     52 ****       -33.9349   7.9924   6.8850 LP             1 <1>                0.0000
     53 ****       -33.2841   9.4182   7.3435 LP             1 <1>                0.0000
     54 ****       -31.7490   6.5101  10.0850 LP             1 <1>                0.0000
@<TRIPOS>BOND
    1    2    1 1     
    2    1    6 1     
    3    2    3 1     
    4    2   22 1     
    5    2   23 1     
    6    3    4 1     
    7    3   24 1     
    8    3   25 1     
    9    4    7 1     
   10    4    5 1     
   11    5    6 1     
   12    5   26 1     
   13    5   27 1     
   14    6   28 1     
   15    6   29 1     
   16    7    8 ar    
   17    7   11 ar    
   18    8    9 ar    
   19    9   10 ar    
   20   10   11 ar    
   21   11   12 1     
   22   12   13 1     
   23   13   14 1     
   24   13   30 1     
   25   13   31 1     
   26   14   15 1     
   27   14   16 1     
   28   14   32 1     
   29   15   33 1     
   30   16   17 1     
   31   16   34 1     
   32   16   35 1     
   33   17   18 1     
   34   17   36 1     
   35   18   19 1     
   36   18   20 1     
   37   18   21 1     
   38   19   37 1     
   39   19   38 1     
   40   19   39 1     
   41   20   40 1     
   42   20   41 1     
   43   20   42 1     
   44   21   43 1     
   45   21   44 1     
   46   21   45 1     
   47    1   46 1     
   48    1   47 1     
   49    8   48 1     
   50   10   49 1     
   51   12   50 1     
   52   12   51 1     
   53   15   52 1     
   54   15   53 1     
   55   17   54 1     
@<TRIPOS>SUBSTRUCTURE
      1 ****           1
@<TRIPOS>SET
LONE_PAIRS      STATIC     ATOMS    <user>   **** ""
9 46 47 48 49 50 51 52 53 54
DONOR_HYDROGENS      STATIC     ATOMS    <user>   **** ""
2 33 36
ATOM$BLUE        STATIC     ATOMS    COLORGROUP SYSTEM
9 46 47 48 49 50 51 52 53 54
ATOM$RED        STATIC     ATOMS    COLORGROUP SYSTEM
2 33 36
@<TRIPOS>COMMENT
> <Gold.Version>
5.5

> <Gold.Id.Protein>
unknown|dok_beta2|pdb

> <Gold.Protein.RotatedTorsions>
[ 4175 4166 4165 4163 ] final  168.52 input -179.98 | X-H torsion
[ 1294 1290 1288 1285 ] final  145.43 input -179.99 | X-H torsion
[ 4033 4024 4023 4021 ] final   61.92 input  179.98 | X-H torsion
[ 1412 1408 1406 1403 ] final  -94.73 input -179.99 | X-H torsion
[ 2830 2825 2824 2821 ] final -147.74 input -179.98 | X-H torsion
[ 2723 2714 2713 2711 ] final -142.03 input -179.98 | X-H torsion
[ 2773 2768 2767 2764 ] final -104.00 input  180.00 | X-H torsion

> <Gold.Protein.ActiveResidues>
 TRP109  THR110  ASP113  VAL114  VAL117  THR118  PHE193  TYR199  SER203  SER207 
 PHE208  TRP286  PHE289  PHE290  ASN293  TYR308  ASN312  TYR316 

> <Gold.Protein.RotatedAtoms>
  -34.3114    3.5894    1.2238 H   0  0  0  0  0  0  0  0  0  0  0  0  # atno 1294 bound_to 1290
  -26.5919   15.0886    2.6969 H   0  0  0  0  0  0  0  0  0  0  0  0  # atno 1412 bound_to 1408
  -26.5075    7.9042    2.9197 H   0  0  0  0  0  0  0  0  0  0  0  0  # atno 2723 bound_to 2714
  -24.5526   10.0551    3.8587 H   0  0  0  0  0  0  0  0  0  0  0  0  # atno 2773 bound_to 2768
  -25.0819   13.3112    2.5089 H   0  0  0  0  0  0  0  0  0  0  0  0  # atno 2830 bound_to 2825
  -29.3563    6.5822   10.8282 H   0  0  0  0  0  0  0  0  0  0  0  0  # atno 4033 bound_to 4024
  -36.4122    9.3372    7.2849 H   0  0  0  0  0  0  0  0  0  0  0  0  # atno 4175 bound_to 4166
  -37.8110    8.6141    7.5707 LP  0  0  0  0  0  0  0  0  0  0  0  0  # atno 4597 bound_to 4166
  -36.5493    8.4199    8.5891 LP  0  0  0  0  0  0  0  0  0  0  0  0  # atno 4598 bound_to 4166
  -35.4695    4.6056    1.6567 LP  0  0  0  0  0  0  0  0  0  0  0  0  # atno 4603 bound_to 1290
  -34.2129    4.3009    2.6540 LP  0  0  0  0  0  0  0  0  0  0  0  0  # atno 4604 bound_to 1290
  -28.3795    5.3142   10.8381 LP  0  0  0  0  0  0  0  0  0  0  0  0  # atno 4607 bound_to 4024
  -27.9505    6.7020   11.5842 LP  0  0  0  0  0  0  0  0  0  0  0  0  # atno 4608 bound_to 4024
  -27.7043   14.4981    1.7094 LP  0  0  0  0  0  0  0  0  0  0  0  0  # atno 4611 bound_to 1408
  -28.1001   14.9752    3.2202 LP  0  0  0  0  0  0  0  0  0  0  0  0  # atno 4612 bound_to 1408
  -23.6593   12.8584    3.0845 LP  0  0  0  0  0  0  0  0  0  0  0  0  # atno 4613 bound_to 2825
  -23.7817   14.1374    2.0767 LP  0  0  0  0  0  0  0  0  0  0  0  0  # atno 4614 bound_to 2825

> <Gold.Score>
     Score     S(PLP)   S(hbond)     S(cho)   S(metal)  DE(clash)   DE(tors)     intcor
     62.13     -56.63       3.00       0.00       0.00       0.00       3.36       3.23

> <Gold.PLP.Fitness>
62.1261

> <Gold.PLP.PLP>
-56.6282

> <Gold.PLP.part.hbond>
-4.5155

> <Gold.PLP.part.metal>
0.0000

> <Gold.PLP.part.buried>
-6.2280

> <Gold.PLP.part.nonpolar>
-46.9666

> <Gold.PLP.part.repulsive>
0.2089

> <Gold.PLP.ligand.clash>
0.0000

> <Gold.PLP.ligand.torsion>
3.3649

> <Gold.PLP.Chemscore.Hbond>
3.0000

> <Gold.PLP.Chemscore.CHOScore>
0.0000

> <Gold.PLP.Chemscore.Metal>
0.0000

> <Gold.Chemscore.Hbonds>
donor molecule, donor type, donor heavy atom, donor atom, acceptor molecule, acceptor atom, score
      L1  H    15    33       P1  4098  1.00
      L1  H    17    36       P1  4098  1.00
      P1  H  2768  2773       L1     1  1.00

> <Gold.PLP.Chemscore.Internal.Correction>
3.2278

