#       Name:                C:\Users\porto\OneDrive\projekt\beta2\ligandy\L_4ldo.pdb L_4ldo.pdb 1
#       Creating user name   student
#       Creation time:       Mon Apr 08 16:09:39 2019


#       File generated by GOLD software.
#

@<TRIPOS>MOLECULE
C:\Users\porto\OneDrive\projekt\beta2\ligandy\L_4ldo.pdb L_4ldo.pdb 1|4ldo|mol2|1|dock3
    33    33     1
SMALL
GASTEIGER


@<TRIPOS>ATOM
      1 C1         -29.2577   9.7761   7.4696 C.ar           1 <1>               -0.0143
      2 N1         -26.4718   8.2069   5.6602 N.3            1 <1>               -0.3162
      3 O1         -32.6167   8.3366   7.7419 O.3            1 <1>               -0.5033
      4 C2         -30.2648   8.8157   7.4972 C.ar           1 <1>               -0.0109
      5 O2         -33.1998  10.8656   8.0674 O.3            1 <1>               -0.5033
      6 C3         -31.5803   9.2170   7.7011 C.ar           1 <1>                0.1586
      7 O3         -27.5892   8.3308   8.1707 O.3            1 <1>               -0.3859
      8 C4         -31.8886  10.5580   7.8733 C.ar           1 <1>                0.1582
      9 C5         -30.8888  11.5224   7.8456 C.ar           1 <1>               -0.0162
     10 C6         -29.5707  11.1222   7.6431 C.ar           1 <1>               -0.0524
     11 C7         -27.9381   9.3824   7.2660 C.3            1 <1>                0.0927
     12 C8         -27.7557   8.9031   5.8245 C.3            1 <1>                0.0258
     13 C9         -25.3725   9.1030   6.0433 C.3            1 <1>               -0.0157
     14 HN1        -26.4558   7.3865   6.2486 H              1 <1>                0.1217
     15 HO1        -32.8569   8.1669   8.6555 H              1 <1>                0.2923
     16 H2         -30.0200   7.7727   7.3613 H              1 <1>                0.0659
     17 HO2        -33.6427  10.9327   7.2183 H              1 <1>                0.2923
     18 HO3        -28.3716   7.8137   8.3784 H              1 <1>                0.2103
     19 H5         -31.1395  12.5646   7.9804 H              1 <1>                0.0655
     20 H6         -28.7884  11.8659   7.6214 H              1 <1>                0.0622
     21 H7         -27.2825  10.2345   7.4427 H              1 <1>                0.0656
     22 H81        -28.5700   8.2289   5.5606 H              1 <1>                0.0453
     23 H82        -27.7935   9.7589   5.1506 H              1 <1>                0.0453
     24 H91        -24.4209   8.5850   5.9209 H              1 <1>                0.0388
     25 H92        -25.3876   9.9889   5.4083 H              1 <1>                0.0388
     26 H93        -25.4919   9.4005   7.0854 H              1 <1>                0.0388
     27 ****       -26.3623   7.9354   4.7040 LP             1 <1>                0.0000
     28 ****       -32.3436   7.4798   7.3045 LP             1 <1>                0.0000
     29 ****       -33.4015   8.7229   7.2573 LP             1 <1>                0.0000
     30 ****       -33.2693  11.7391   8.5493 LP             1 <1>                0.0000
     31 ****       -33.6330  10.1485   8.6134 LP             1 <1>                0.0000
     32 ****       -27.2170   8.7243   9.0113 LP             1 <1>                0.0000
     33 ****       -26.9026   7.7405   7.7465 LP             1 <1>                0.0000
@<TRIPOS>BOND
    1    1    4 ar    
    2    1   10 ar    
    3    1   11 1     
    4    2   12 1     
    5    2   13 1     
    6    2   14 1     
    7    3    6 1     
    8    3   15 1     
    9    4    6 ar    
   10    4   16 1     
   11    5    8 1     
   12    5   17 1     
   13    6    8 ar    
   14    7   11 1     
   15    7   18 1     
   16    8    9 ar    
   17    9   10 ar    
   18    9   19 1     
   19   10   20 1     
   20   11   12 1     
   21   11   21 1     
   22   12   22 1     
   23   12   23 1     
   24   13   24 1     
   25   13   25 1     
   26   13   26 1     
   27    2   27 1     
   28    3   28 1     
   29    3   29 1     
   30    5   30 1     
   31    5   31 1     
   32    7   32 1     
   33    7   33 1     
@<TRIPOS>SUBSTRUCTURE
      1 ****           1
@<TRIPOS>SET
LONE_PAIRS      STATIC     ATOMS    <user>   **** ""
7 27 28 29 30 31 32 33
DONOR_HYDROGENS      STATIC     ATOMS    <user>   **** ""
4 14 15 17 18
ATOM$BLUE        STATIC     ATOMS    COLORGROUP SYSTEM
7 27 28 29 30 31 32 33
ATOM$RED        STATIC     ATOMS    COLORGROUP SYSTEM
4 14 15 17 18
@<TRIPOS>COMMENT
> <Gold.Version>
5.5

> <Gold.Id.Protein>
unknown|dok_beta2|pdb

> <Gold.Protein.RotatedTorsions>
[ 4175 4166 4165 4163 ] final -174.77 input -179.98 | X-H torsion
[ 1294 1290 1288 1285 ] final -156.84 input -179.99 | X-H torsion
[ 4033 4024 4023 4021 ] final  -98.63 input  179.98 | X-H torsion
[ 1412 1408 1406 1403 ] final  -78.12 input -179.99 | X-H torsion
[ 2830 2825 2824 2821 ] final   36.19 input -179.98 | X-H torsion
[ 2723 2714 2713 2711 ] final    9.74 input -179.98 | X-H torsion
[ 2773 2768 2767 2764 ] final -140.25 input  180.00 | X-H torsion

> <Gold.Protein.ActiveResidues>
 TRP109  THR110  ASP113  VAL114  VAL117  THR118  PHE193  TYR199  SER203  SER207 
 PHE208  TRP286  PHE289  PHE290  ASN293  TYR308  ASN312  TYR316 

> <Gold.Protein.RotatedAtoms>
  -33.8830    3.7142    1.9749 H   0  0  0  0  0  0  0  0  0  0  0  0  # atno 1294 bound_to 1290
  -26.6907   15.1548    2.9298 H   0  0  0  0  0  0  0  0  0  0  0  0  # atno 1412 bound_to 1408
  -26.2177    7.8472    1.1897 H   0  0  0  0  0  0  0  0  0  0  0  0  # atno 2723 bound_to 2714
  -24.7230    9.6306    3.5306 H   0  0  0  0  0  0  0  0  0  0  0  0  # atno 2773 bound_to 2768
  -23.2918   13.5181    2.6547 H   0  0  0  0  0  0  0  0  0  0  0  0  # atno 2830 bound_to 2825
  -27.9207    5.5872   11.1935 H   0  0  0  0  0  0  0  0  0  0  0  0  # atno 4033 bound_to 4024
  -36.2327    9.2837    7.4694 H   0  0  0  0  0  0  0  0  0  0  0  0  # atno 4175 bound_to 4166
  -37.7463    8.7761    7.3593 LP  0  0  0  0  0  0  0  0  0  0  0  0  # atno 4597 bound_to 4166
  -36.8012    8.3137    8.6081 LP  0  0  0  0  0  0  0  0  0  0  0  0  # atno 4598 bound_to 4166
  -35.1375    4.0316    1.0332 LP  0  0  0  0  0  0  0  0  0  0  0  0  # atno 4603 bound_to 1290
  -34.9915    4.7449    2.4948 LP  0  0  0  0  0  0  0  0  0  0  0  0  # atno 4604 bound_to 1290
  -28.4762    7.0663   11.4505 LP  0  0  0  0  0  0  0  0  0  0  0  0  # atno 4607 bound_to 4024
  -29.3491    5.9863   10.5914 LP  0  0  0  0  0  0  0  0  0  0  0  0  # atno 4608 bound_to 4024
  -27.4385   14.5312    1.6597 LP  0  0  0  0  0  0  0  0  0  0  0  0  # atno 4611 bound_to 1408
  -28.2630   14.8730    3.0272 LP  0  0  0  0  0  0  0  0  0  0  0  0  # atno 4612 bound_to 1408
  -24.6593   14.0360    2.0052 LP  0  0  0  0  0  0  0  0  0  0  0  0  # atno 4613 bound_to 2825
  -24.6480   12.7442    3.0040 LP  0  0  0  0  0  0  0  0  0  0  0  0  # atno 4614 bound_to 2825

> <Gold.Score>
     Score     S(PLP)   S(hbond)     S(cho)   S(metal)  DE(clash)   DE(tors)     intcor
     48.65     -38.57       3.53       0.00       0.00       0.00       0.26       0.02

> <Gold.PLP.Fitness>
48.6525

> <Gold.PLP.PLP>
-38.5729

> <Gold.PLP.part.hbond>
-4.0000

> <Gold.PLP.part.metal>
0.0000

> <Gold.PLP.part.buried>
-5.6416

> <Gold.PLP.part.nonpolar>
-30.7852

> <Gold.PLP.part.repulsive>
0.0000

> <Gold.PLP.ligand.clash>
0.0000

> <Gold.PLP.ligand.torsion>
0.2612

> <Gold.PLP.Chemscore.Hbond>
3.5280

> <Gold.PLP.Chemscore.CHOScore>
0.0000

> <Gold.PLP.Chemscore.Metal>
0.0000

> <Gold.Chemscore.Hbonds>
donor molecule, donor type, donor heavy atom, donor atom, acceptor molecule, acceptor atom, score
      L1  H     3    15       P1  4098  1.00
      L1  H     5    17       P1  1334  1.00
      P1  H  4097  4104       L1     5  1.00
      P1  H  3760  3767       L1     7  0.53

> <Gold.PLP.Chemscore.Internal.Correction>
0.0180

