#       Name:                C:\Users\porto\OneDrive\projekt\beta1\ligandy\L_3zpq.pdb L_3zpq.pdb 1
#       Creating user name   student
#       Creation time:       Mon Apr 08 14:09:09 2019


#       File generated by GOLD software.
#

@<TRIPOS>MOLECULE
C:\Users\porto\OneDrive\projekt\beta1\ligandy\L_3zpq.pdb L_3zpq.pdb 1|3zpq|mol2|1|dock2
    31    33     1
SMALL
GASTEIGER


@<TRIPOS>ATOM
      1 C1         -22.9064   2.2926  12.6819 C.ar           1 <1>               -0.0580
      2 C2         -23.1415   2.9385  13.8802 C.ar           1 <1>               -0.0400
      3 C3         -23.4534   4.2949  13.8738 C.ar           1 <1>                0.0390
      4 C4         -23.5027   4.9559  12.7090 C.ar           1 <1>                0.0207
      5 C5         -23.7516   6.2377  12.4199 C.ar           1 <1>               -0.0349
      6 C6         -23.6832   6.3960  11.0980 C.ar           1 <1>                0.0028
      7 N7         -23.3913   5.2115  10.5635 N.pl3          1 <1>               -0.3606
      8 C8         -23.2739   4.3264  11.5489 C.ar           1 <1>                0.0482
      9 C9         -22.9799   3.0301  11.5130 C.ar           1 <1>               -0.0377
     10 N10        -23.6338   4.9224  15.0527 N.pl3          1 <1>               -0.3270
     11 C11        -24.5934   4.2943  16.0176 C.3            1 <1>                0.0248
     12 C12        -24.4683   4.6968  17.4637 C.3            1 <1>                0.0117
     13 N13        -23.7270   5.9636  17.6399 N.3            1 <1>               -0.3130
     14 C14        -23.8618   6.7967  16.4430 C.3            1 <1>                0.0117
     15 C15        -23.0549   6.2554  15.3394 C.3            1 <1>                0.0248
     16 H1         -22.6725   1.2386  12.6731 H              1 <1>                0.0619
     17 H2         -23.0824   2.3914  14.8089 H              1 <1>                0.0636
     18 H5         -23.9616   6.9398  13.2139 H              1 <1>                0.0639
     19 H6         -23.8549   7.3680  10.6607 H              1 <1>                0.0807
     20 HN7        -23.2988   5.1184   9.5624 H              1 <1>                0.1653
     21 H9         -22.7981   2.5533  10.5608 H              1 <1>                0.0638
     22 H111       -24.5209   3.2098  15.9398 H              1 <1>                0.0476
     23 H112       -25.6129   4.4797  15.6804 H              1 <1>                0.0476
     24 H121       -23.9669   3.9040  18.0185 H              1 <1>                0.0439
     25 H122       -25.4626   4.7958  17.8995 H              1 <1>                0.0439
     26 HN13       -24.0983   6.4634  18.4353 H              1 <1>                0.1220
     27 H141       -23.5342   7.8118  16.6683 H              1 <1>                0.0439
     28 H142       -24.9092   6.8341  16.1429 H              1 <1>                0.0439
     29 H151       -23.1660   6.8941  14.4637 H              1 <1>                0.0476
     30 H152       -22.0231   6.1384  15.6698 H              1 <1>                0.0476
     31 ****       -22.7604   5.7556  17.7898 LP             1 <1>                0.0000
@<TRIPOS>BOND
    1    1    2 ar    
    2    1    9 ar    
    3    1   16 1     
    4    2    3 ar    
    5    2   17 1     
    6    3    4 ar    
    7    3   10 1     
    8    4    5 ar    
    9    4    8 ar    
   10    5    6 ar    
   11    5   18 1     
   12    6    7 ar    
   13    6   19 1     
   14    7    8 ar    
   15    7   20 1     
   16    8    9 ar    
   17    9   21 1     
   18   10   11 1     
   19   10   15 1     
   20   11   12 1     
   21   11   22 1     
   22   11   23 1     
   23   12   13 1     
   24   12   24 1     
   25   12   25 1     
   26   13   14 1     
   27   13   26 1     
   28   14   15 1     
   29   14   27 1     
   30   14   28 1     
   31   15   29 1     
   32   15   30 1     
   33   13   31 1     
@<TRIPOS>SUBSTRUCTURE
      1 ****           1
@<TRIPOS>SET
LONE_PAIRS      STATIC     ATOMS    <user>   **** ""
1 31
DONOR_HYDROGENS      STATIC     ATOMS    <user>   **** ""
2 20 26
ATOM$BLUE        STATIC     ATOMS    COLORGROUP SYSTEM
1 31
ATOM$RED        STATIC     ATOMS    COLORGROUP SYSTEM
2 20 26
@<TRIPOS>COMMENT
> <Gold.Version>
5.5

> <Gold.Id.Protein>
unknown|bialko_beta1|pdb

> <Gold.Protein.ActiveResidues>
 ALA86   ASP87   VAL90   VAL94   VAL95   GLY98   ALA99   LEU101  VAL102  CYS114 
 GLU115  TRP117  THR118  SER119  LEU120  ASP121  VAL122  CYS124  VAL125  THR126 
 SER128  SER173  PHE174  ILE177  CYS199  ASP200  PHE201  TYR207  SER215  PHE299 
 TRP303  PHE306  PHE307  ASN310  PHE325  VAL326  ASN329  TRP330  GLY332  TYR333 
 SER336 

> <Gold.Score>
     Score     S(PLP)   S(hbond)     S(cho)   S(metal)  DE(clash)   DE(tors)     intcor
     54.84     -52.88       0.80       0.00       0.00       0.00       0.78       1.13

> <Gold.PLP.Fitness>
54.8442

> <Gold.PLP.PLP>
-52.8840

> <Gold.PLP.part.hbond>
-3.1992

> <Gold.PLP.part.metal>
0.0000

> <Gold.PLP.part.buried>
-2.2335

> <Gold.PLP.part.nonpolar>
-48.9676

> <Gold.PLP.part.repulsive>
0.0000

> <Gold.PLP.ligand.clash>
0.0000

> <Gold.PLP.ligand.torsion>
0.7804

> <Gold.PLP.Chemscore.Hbond>
0.7963

> <Gold.PLP.Chemscore.CHOScore>
0.0000

> <Gold.PLP.Chemscore.Metal>
0.0000

> <Gold.Chemscore.Hbonds>
donor molecule, donor type, donor heavy atom, donor atom, acceptor molecule, acceptor atom, score
      L1  H    13    26       P1  2066  0.80

> <Gold.PLP.Chemscore.Internal.Correction>
1.1321

