#       Name:                C:\Users\porto\OneDrive\projekt\beta2\ligandy\L_3ny9.pdb L_3ny9.pdb 1
#       Creating user name   student
#       Creation time:       Mon Apr 08 15:46:00 2019


#       File generated by GOLD software.
#

@<TRIPOS>MOLECULE
C:\Users\porto\OneDrive\projekt\beta2\ligandy\L_3ny9.pdb L_3ny9.pdb 1|3ny9|mol2|1|dock3
    58    59     1
SMALL
GASTEIGER


@<TRIPOS>ATOM
      1 C1         -25.1499   7.9347   6.7798 C.2            1 <1>                0.3751
      2 N1         -33.2411   8.4642   7.4389 N.3            1 <1>               -0.3112
      3 O1         -24.2621   7.6432   5.9964 O.2            1 <1>               -0.2415
      4 C2         -24.7695   5.8481   8.1598 C.3            1 <1>                0.0901
      5 O2         -25.3878   7.1276   7.9721 O.3            1 <1>               -0.4593
      6 C3         -25.8040   4.8539   8.6456 C.3            1 <1>               -0.0306
      7 O3         -25.5130  10.2550   5.9490 O.3            1 <1>               -0.4478
      8 C4         -26.0024   9.1154   6.5073 C.ar           1 <1>                0.2156
      9 O4         -30.1473  10.9709   6.6542 O.3            1 <1>               -0.4886
     10 C5         -27.4528   9.3090   6.7416 C.ar           1 <1>                0.0131
     11 O5         -33.2171  11.2226   8.1154 O.3            1 <1>               -0.3872
     12 C6         -28.5200   8.4189   7.3219 C.3            1 <1>               -0.0352
     13 C7         -27.7762  10.6023   6.2993 C.ar           1 <1>                0.0655
     14 C8         -26.5474  11.0909   5.8433 C.ar           1 <1>                0.1398
     15 C9         -26.4433  12.3733   5.3148 C.ar           1 <1>               -0.0185
     16 C10        -27.5818  13.1778   5.2463 C.ar           1 <1>               -0.0548
     17 C11        -28.8095  12.7003   5.6985 C.ar           1 <1>               -0.0191
     18 C12        -28.9163  11.4146   6.2327 C.ar           1 <1>                0.1316
     19 C13        -30.8136  11.3981   7.8488 C.3            1 <1>                0.1166
     20 C14        -31.9991  10.4726   8.1375 C.3            1 <1>                0.1015
     21 C15        -32.1120   9.3512   7.1082 C.3            1 <1>                0.0254
     22 C16        -32.7941   7.0513   7.5449 C.3            1 <1>                0.0021
     23 C17        -33.9752   6.1671   7.9343 C.3            1 <1>               -0.0499
     24 C18        -32.1767   6.5620   6.2382 C.3            1 <1>               -0.0499
     25 HN1        -33.6420   8.7444   8.3229 H              1 <1>                0.1223
     26 H21        -23.9736   5.9344   8.8996 H              1 <1>                0.0695
     27 H22        -24.3521   5.5042   7.2134 H              1 <1>                0.0695
     28 H31        -25.3342   3.8805   8.7884 H              1 <1>                0.0262
     29 H32        -26.2226   5.1976   9.5912 H              1 <1>                0.0262
     30 H33        -26.6007   4.7675   7.9070 H              1 <1>                0.0262
     31 HO5        -33.9569  10.6385   8.2973 H              1 <1>                0.2100
     32 H61        -29.4749   8.9454   7.3180 H              1 <1>                0.0279
     33 H62        -28.6034   7.5124   6.7218 H              1 <1>                0.0279
     34 H63        -28.2553   8.1535   8.3456 H              1 <1>                0.0279
     35 H9         -25.4890  12.7366   4.9634 H              1 <1>                0.0654
     36 H10        -27.5141  14.1769   4.8405 H              1 <1>                0.0620
     37 H11        -29.6880  13.3257   5.6372 H              1 <1>                0.0654
     38 H131       -31.1730  12.4185   7.7187 H              1 <1>                0.0723
     39 H132       -30.1156  11.3660   8.6854 H              1 <1>                0.0723
     40 H14        -31.8720  10.0331   9.1269 H              1 <1>                0.0640
     41 H151       -32.2658   9.7814   6.1180 H              1 <1>                0.0450
     42 H152       -31.1875   8.7732   7.0979 H              1 <1>                0.0450
     43 H16        -32.0403   6.9859   8.3289 H              1 <1>                0.0455
     44 H171       -33.6442   5.1313   8.0112 H              1 <1>                0.0245
     45 H172       -34.3727   6.4937   8.8955 H              1 <1>                0.0245
     46 H173       -34.7533   6.2435   7.1753 H              1 <1>                0.0245
     47 H181       -31.8604   5.5247   6.3513 H              1 <1>                0.0245
     48 H182       -32.9142   6.6319   5.4390 H              1 <1>                0.0245
     49 H183       -31.3136   7.1799   5.9903 H              1 <1>                0.0245
     50 ****       -33.9198   8.5366   6.7080 LP             1 <1>                0.0000
     51 ****       -23.6872   6.8431   6.1675 LP             1 <1>                0.0000
     52 ****       -24.1090   8.2042   5.1829 LP             1 <1>                0.0000
     53 ****       -25.1296  10.0617   5.0458 LP             1 <1>                0.0000
     54 ****       -24.8052  10.6514   6.5337 LP             1 <1>                0.0000
     55 ****       -30.0572   9.9787   6.7402 LP             1 <1>                0.0000
     56 ****       -30.7770  11.1849   5.9074 LP             1 <1>                0.0000
     57 ****       -33.3354  11.6393   7.2141 LP             1 <1>                0.0000
     58 ****       -33.1796  11.9394   8.8117 LP             1 <1>                0.0000
@<TRIPOS>BOND
    1    1    3 2     
    2    1    5 1     
    3    1    8 1     
    4    2   21 1     
    5    2   22 1     
    6    2   25 1     
    7    4    5 1     
    8    4    6 1     
    9    4   26 1     
   10    4   27 1     
   11    6   28 1     
   12    6   29 1     
   13    6   30 1     
   14    7    8 ar    
   15    7   14 ar    
   16    8   10 ar    
   17    9   18 1     
   18    9   19 1     
   19   10   12 1     
   20   10   13 ar    
   21   11   20 1     
   22   11   31 1     
   23   12   32 1     
   24   12   33 1     
   25   12   34 1     
   26   13   14 ar    
   27   13   18 ar    
   28   14   15 ar    
   29   15   16 ar    
   30   15   35 1     
   31   16   17 ar    
   32   16   36 1     
   33   17   18 ar    
   34   17   37 1     
   35   19   20 1     
   36   19   38 1     
   37   19   39 1     
   38   20   21 1     
   39   20   40 1     
   40   21   41 1     
   41   21   42 1     
   42   22   23 1     
   43   22   24 1     
   44   22   43 1     
   45   23   44 1     
   46   23   45 1     
   47   23   46 1     
   48   24   47 1     
   49   24   48 1     
   50   24   49 1     
   51    2   50 1     
   52    3   51 1     
   53    3   52 1     
   54    7   53 1     
   55    7   54 1     
   56    9   55 1     
   57    9   56 1     
   58   11   57 1     
   59   11   58 1     
@<TRIPOS>SUBSTRUCTURE
      1 ****           1
@<TRIPOS>SET
LONE_PAIRS      STATIC     ATOMS    <user>   **** ""
9 50 51 52 53 54 55 56 57 58
DONOR_HYDROGENS      STATIC     ATOMS    <user>   **** ""
2 25 31
ATOM$BLUE        STATIC     ATOMS    COLORGROUP SYSTEM
9 50 51 52 53 54 55 56 57 58
ATOM$RED        STATIC     ATOMS    COLORGROUP SYSTEM
2 25 31
@<TRIPOS>COMMENT
> <Gold.Version>
5.5

> <Gold.Id.Protein>
unknown|dok_beta2|pdb

> <Gold.Protein.RotatedTorsions>
[ 4175 4166 4165 4163 ] final  173.22 input -179.98 | X-H torsion
[ 1294 1290 1288 1285 ] final  103.35 input -179.99 | X-H torsion
[ 4033 4024 4023 4021 ] final  167.17 input  179.98 | X-H torsion
[ 1412 1408 1406 1403 ] final   82.04 input -179.99 | X-H torsion
[ 2830 2825 2824 2821 ] final  -17.91 input -179.98 | X-H torsion
[ 2723 2714 2713 2711 ] final   88.81 input -179.98 | X-H torsion
[ 2773 2768 2767 2764 ] final  -95.11 input  180.00 | X-H torsion

> <Gold.Protein.ActiveResidues>
 TRP109  THR110  ASP113  VAL114  VAL117  THR118  PHE193  TYR199  SER203  SER207 
 PHE208  TRP286  PHE289  PHE290  ASN293  TYR308  ASN312  TYR316 

> <Gold.Protein.RotatedAtoms>
  -34.8668    3.8506    1.0104 H   0  0  0  0  0  0  0  0  0  0  0  0  # atno 1294 bound_to 1290
  -28.3288   14.6567    2.4333 H   0  0  0  0  0  0  0  0  0  0  0  0  # atno 1412 bound_to 1408
  -26.9058    7.0211    1.6033 H   0  0  0  0  0  0  0  0  0  0  0  0  # atno 2723 bound_to 2714
  -24.4861   10.1738    3.8928 H   0  0  0  0  0  0  0  0  0  0  0  0  # atno 2773 bound_to 2768
  -23.6677   14.0650    2.1685 H   0  0  0  0  0  0  0  0  0  0  0  0  # atno 2830 bound_to 2825
  -28.1422    6.8442   11.5544 H   0  0  0  0  0  0  0  0  0  0  0  0  # atno 4033 bound_to 4024
  -36.3567    9.3266    7.3329 H   0  0  0  0  0  0  0  0  0  0  0  0  # atno 4175 bound_to 4166
  -37.8003    8.6587    7.5084 LP  0  0  0  0  0  0  0  0  0  0  0  0  # atno 4597 bound_to 4166
  -36.6179    8.3864    8.6013 LP  0  0  0  0  0  0  0  0  0  0  0  0  # atno 4598 bound_to 4166
  -35.2262    4.7774    2.2647 LP  0  0  0  0  0  0  0  0  0  0  0  0  # atno 4603 bound_to 1290
  -33.8775    3.8569    2.2684 LP  0  0  0  0  0  0  0  0  0  0  0  0  # atno 4604 bound_to 1290
  -29.4194    6.3850   10.7058 LP  0  0  0  0  0  0  0  0  0  0  0  0  # atno 4607 bound_to 4024
  -28.1753    5.3583   10.9602 LP  0  0  0  0  0  0  0  0  0  0  0  0  # atno 4608 bound_to 4024
  -27.1510   15.2112    3.3642 LP  0  0  0  0  0  0  0  0  0  0  0  0  # atno 4611 bound_to 1408
  -26.8434   14.7121    1.8401 LP  0  0  0  0  0  0  0  0  0  0  0  0  # atno 4612 bound_to 1408
  -25.1165   13.4260    2.3980 LP  0  0  0  0  0  0  0  0  0  0  0  0  # atno 4613 bound_to 2825
  -23.7989   12.7840    3.1181 LP  0  0  0  0  0  0  0  0  0  0  0  0  # atno 4614 bound_to 2825

> <Gold.Score>
     Score     S(PLP)   S(hbond)     S(cho)   S(metal)  DE(clash)   DE(tors)     intcor
     77.07     -73.27       1.27       0.00       0.00       0.00       0.00       0.00

> <Gold.PLP.Fitness>
77.0738

> <Gold.PLP.PLP>
-73.2694

> <Gold.PLP.part.hbond>
-5.5101

> <Gold.PLP.part.metal>
0.0000

> <Gold.PLP.part.buried>
-7.9289

> <Gold.PLP.part.nonpolar>
-62.0190

> <Gold.PLP.part.repulsive>
0.3725

> <Gold.PLP.ligand.clash>
0.0000

> <Gold.PLP.ligand.torsion>
0.0000

> <Gold.PLP.Chemscore.Hbond>
1.2682

> <Gold.PLP.Chemscore.CHOScore>
0.0000

> <Gold.PLP.Chemscore.Metal>
0.0000

> <Gold.Chemscore.Hbonds>
donor molecule, donor type, donor heavy atom, donor atom, acceptor molecule, acceptor atom, score
      L1  H     2    25       P1  4098  0.76
      P1  H  2768  2773       L1     7  0.50

> <Gold.PLP.Chemscore.Internal.Correction>
0.0000

