#       Name:                C:\Users\porto\OneDrive\projekt\beta2\ligandy\L_4ldl.pdb L_4ldl.pdb 1
#       Creating user name   student
#       Creation time:       Mon Apr 08 16:09:05 2019


#       File generated by GOLD software.
#

@<TRIPOS>MOLECULE
C:\Users\porto\OneDrive\projekt\beta2\ligandy\L_4ldl.pdb L_4ldl.pdb 1|4ldl|mol2|1|dock82
    55    56     1
SMALL
GASTEIGER


@<TRIPOS>ATOM
      1 CAA        -31.7030   7.3008   5.1038 C.3            1 <1>               -0.0467
      2 CAB        -31.7153   7.8930   6.5095 C.3            1 <1>                0.0176
      3 CAC        -30.6070   7.2758   7.3536 C.3            1 <1>               -0.0467
      4 CAD        -33.0809   7.7233   7.1795 C.3            1 <1>               -0.0098
      5 CAE        -33.4163   6.2837   7.5190 C.ar           1 <1>               -0.0454
      6 CAF        -32.8009   5.6343   8.5865 C.ar           1 <1>               -0.0551
      7 CAG        -33.1136   4.3127   8.8790 C.ar           1 <1>               -0.0199
      8 CAH        -34.0359   3.6263   8.0953 C.ar           1 <1>                0.1169
      9 CAJ        -34.6442   4.2669   7.0226 C.ar           1 <1>               -0.0199
     10 CAK        -34.3297   5.5887   6.7314 C.ar           1 <1>               -0.0551
     11 CAM        -31.2348  10.0833   7.5943 C.3            1 <1>                0.0266
     12 CAN        -30.8720  11.5252   7.2615 C.3            1 <1>                0.0927
     13 CAP        -29.5369  11.5316   6.6208 C.ar           1 <1>               -0.0143
     14 CAQ        -28.6167  10.5217   6.8758 C.ar           1 <1>               -0.0524
     15 CAR        -27.3697  10.5520   6.2600 C.ar           1 <1>               -0.0162
     16 CAS        -27.0456  11.5845   5.3865 C.ar           1 <1>                0.1582
     17 CAU        -27.9651  12.5853   5.1290 C.ar           1 <1>                0.1586
     18 CAW        -29.2105  12.5594   5.7442 C.ar           1 <1>               -0.0109
     19 NAL        -31.4315   9.3079   6.3842 N.3            1 <1>               -0.3080
     20 OAI        -34.3423   2.3298   8.3795 O.3            1 <1>               -0.5068
     21 OAO        -31.8691  12.0963   6.4068 O.3            1 <1>               -0.3859
     22 OAT        -25.8239  11.6125   4.7817 O.3            1 <1>               -0.5033
     23 OAV        -27.6510  13.5974   4.2738 O.3            1 <1>               -0.5033
     24 HAA1       -32.5001   7.7510   4.5122 H              1 <1>                0.0247
     25 HAA2       -30.7421   7.5036   4.6321 H              1 <1>                0.0247
     26 HAA3       -31.8582   6.2236   5.1617 H              1 <1>                0.0247
     27 HAC1       -30.6276   7.7079   8.3537 H              1 <1>                0.0247
     28 HAC2       -30.7576   6.1987   7.4206 H              1 <1>                0.0247
     29 HAC3       -29.6415   7.4787   6.8910 H              1 <1>                0.0247
     30 HAD1       -33.8551   8.1314   6.5304 H              1 <1>                0.0331
     31 HAD2       -33.1165   8.3265   8.0867 H              1 <1>                0.0331
     32 HAF        -32.0760   6.1581   9.1920 H              1 <1>                0.0621
     33 HAG        -32.6403   3.8179   9.7148 H              1 <1>                0.0654
     34 HAJ        -35.3624   3.7373   6.4138 H              1 <1>                0.0654
     35 HAK        -34.7978   6.0768   5.8897 H              1 <1>                0.0621
     36 HAM1       -32.1487  10.0665   8.1890 H              1 <1>                0.0453
     37 HAM2       -30.4368   9.6362   8.1863 H              1 <1>                0.0453
     38 HAN        -30.8251  12.1016   8.1850 H              1 <1>                0.0656
     39 HAQ        -28.8708   9.7175   7.5497 H              1 <1>                0.0622
     40 HAR        -26.6494   9.7720   6.4596 H              1 <1>                0.0655
     41 HAW        -29.9262  13.3415   5.5393 H              1 <1>                0.0659
     42 HNAL       -30.5809   9.4359   5.8550 H              1 <1>                0.1225
     43 HOAI       -35.0394   2.0288   7.7921 H              1 <1>                0.2921
     44 HOAO       -32.7067  11.6485   6.5474 H              1 <1>                0.2103
     45 HOAT       -25.5992  12.5181   4.5558 H              1 <1>                0.2923
     46 HOAV       -28.3695  13.7243   3.6500 H              1 <1>                0.2923
     47 ****       -32.2706   9.6466   5.9585 LP             1 <1>                0.0000
     48 ****       -34.6527   2.2610   9.3276 LP             1 <1>                0.0000
     49 ****       -33.5304   1.7601   8.2523 LP             1 <1>                0.0000
     50 ****       -31.5904  11.9899   5.4523 LP             1 <1>                0.0000
     51 ****       -31.9715  13.0684   6.6177 LP             1 <1>                0.0000
     52 ****       -25.8511  11.0585   3.9497 LP             1 <1>                0.0000
     53 ****       -25.1347  11.2438   5.4054 LP             1 <1>                0.0000
     54 ****       -26.8149  13.3660   3.7765 LP             1 <1>                0.0000
     55 ****       -27.5077  14.4400   4.7930 LP             1 <1>                0.0000
@<TRIPOS>BOND
    1    1    2 1     
    2    1   24 1     
    3    1   25 1     
    4    1   26 1     
    5    2    3 1     
    6    2    4 1     
    7    2   19 1     
    8    3   27 1     
    9    3   28 1     
   10    3   29 1     
   11    4    5 1     
   12    4   30 1     
   13    4   31 1     
   14    5    6 ar    
   15    5   10 ar    
   16    6    7 ar    
   17    6   32 1     
   18    7    8 ar    
   19    7   33 1     
   20    8    9 ar    
   21    8   20 1     
   22    9   10 ar    
   23    9   34 1     
   24   10   35 1     
   25   11   12 1     
   26   11   19 1     
   27   11   36 1     
   28   11   37 1     
   29   12   13 1     
   30   12   21 1     
   31   12   38 1     
   32   13   14 ar    
   33   13   18 ar    
   34   14   15 ar    
   35   14   39 1     
   36   15   16 ar    
   37   15   40 1     
   38   16   17 ar    
   39   16   22 1     
   40   17   18 ar    
   41   17   23 1     
   42   18   41 1     
   43   19   42 1     
   44   20   43 1     
   45   21   44 1     
   46   22   45 1     
   47   23   46 1     
   48   19   47 1     
   49   20   48 1     
   50   20   49 1     
   51   21   50 1     
   52   21   51 1     
   53   22   52 1     
   54   22   53 1     
   55   23   54 1     
   56   23   55 1     
@<TRIPOS>SUBSTRUCTURE
      1 ****           1
@<TRIPOS>SET
LONE_PAIRS      STATIC     ATOMS    <user>   **** ""
9 47 48 49 50 51 52 53 54 55
DONOR_HYDROGENS      STATIC     ATOMS    <user>   **** ""
5 42 43 44 45 46
ATOM$BLUE        STATIC     ATOMS    COLORGROUP SYSTEM
9 47 48 49 50 51 52 53 54 55
ATOM$RED        STATIC     ATOMS    COLORGROUP SYSTEM
5 42 43 44 45 46
@<TRIPOS>COMMENT
> <Gold.Version>
5.5

> <Gold.Id.Protein>
unknown|dok_beta2|pdb

> <Gold.Protein.RotatedTorsions>
[ 4175 4166 4165 4163 ] final   26.06 input -179.98 | X-H torsion
[ 1294 1290 1288 1285 ] final   86.46 input -179.99 | X-H torsion
[ 4033 4024 4023 4021 ] final  -82.68 input  179.98 | X-H torsion
[ 1412 1408 1406 1403 ] final -123.32 input -179.99 | X-H torsion
[ 2830 2825 2824 2821 ] final  179.29 input -179.98 | X-H torsion
[ 2723 2714 2713 2711 ] final  178.88 input -179.98 | X-H torsion
[ 2773 2768 2767 2764 ] final  -81.59 input  180.00 | X-H torsion

> <Gold.Protein.ActiveResidues>
 TRP109  THR110  ASP113  VAL114  VAL117  THR118  PHE193  TYR199  SER203  SER207 
 PHE208  TRP286  PHE289  PHE290  ASN293  TYR308  ASN312  TYR316 

> <Gold.Protein.RotatedAtoms>
  -35.0749    4.0124    1.0453 H   0  0  0  0  0  0  0  0  0  0  0  0  # atno 1294 bound_to 1290
  -26.5922   14.9348    2.2774 H   0  0  0  0  0  0  0  0  0  0  0  0  # atno 1412 bound_to 1408
  -26.8494    7.4144    2.8205 H   0  0  0  0  0  0  0  0  0  0  0  0  # atno 2723 bound_to 2714
  -24.3726   10.3536    3.9050 H   0  0  0  0  0  0  0  0  0  0  0  0  # atno 2773 bound_to 2768
  -24.9012   12.9463    2.8213 H   0  0  0  0  0  0  0  0  0  0  0  0  # atno 2830 bound_to 2825
  -28.0789    5.4464   11.0586 H   0  0  0  0  0  0  0  0  0  0  0  0  # atno 4033 bound_to 4024
  -37.7476    8.4478    7.8857 H   0  0  0  0  0  0  0  0  0  0  0  0  # atno 4175 bound_to 4166
  -36.2629    8.6107    8.4602 LP  0  0  0  0  0  0  0  0  0  0  0  0  # atno 4597 bound_to 4166
  -36.7054    9.3505    7.0733 LP  0  0  0  0  0  0  0  0  0  0  0  0  # atno 4598 bound_to 4166
  -35.0332    4.7553    2.4622 LP  0  0  0  0  0  0  0  0  0  0  0  0  # atno 4603 bound_to 1290
  -33.8536    3.7104    2.0345 LP  0  0  0  0  0  0  0  0  0  0  0  0  # atno 4604 bound_to 1290
  -28.2481    6.9666   11.5306 LP  0  0  0  0  0  0  0  0  0  0  0  0  # atno 4607 bound_to 4024
  -29.4125    6.2327   10.6518 LP  0  0  0  0  0  0  0  0  0  0  0  0  # atno 4608 bound_to 4024
  -28.1009   14.5108    1.9530 LP  0  0  0  0  0  0  0  0  0  0  0  0  # atno 4611 bound_to 1408
  -27.7033   15.1228    3.4138 LP  0  0  0  0  0  0  0  0  0  0  0  0  # atno 4612 bound_to 1408
  -23.3244   13.2144    2.8670 LP  0  0  0  0  0  0  0  0  0  0  0  0  # atno 4613 bound_to 2825
  -24.3051   14.1619    1.9685 LP  0  0  0  0  0  0  0  0  0  0  0  0  # atno 4614 bound_to 2825

> <Gold.Score>
     Score     S(PLP)   S(hbond)     S(cho)   S(metal)  DE(clash)   DE(tors)     intcor
     74.64     -67.79       2.85       0.00       0.00       0.00       1.01       0.31

> <Gold.PLP.Fitness>
74.6429

> <Gold.PLP.PLP>
-67.7862

> <Gold.PLP.part.hbond>
-4.9414

> <Gold.PLP.part.metal>
0.0000

> <Gold.PLP.part.buried>
-6.4934

> <Gold.PLP.part.nonpolar>
-58.4204

> <Gold.PLP.part.repulsive>
0.0000

> <Gold.PLP.ligand.clash>
0.0000

> <Gold.PLP.ligand.torsion>
1.0067

> <Gold.PLP.Chemscore.Hbond>
2.8545

> <Gold.PLP.Chemscore.CHOScore>
0.0000

> <Gold.PLP.Chemscore.Metal>
0.0000

> <Gold.Chemscore.Hbonds>
donor molecule, donor type, donor heavy atom, donor atom, acceptor molecule, acceptor atom, score
      L1  H    21    44       P1  1334  0.90
      L1  H    23    46       P1  1343  0.99
      P1  H  2768  2773       L1    22  0.97

> <Gold.PLP.Chemscore.Internal.Correction>
0.3068

