#       Name:                C:\Users\porto\OneDrive\projekt\beta1\ligandy\L_6ibl.pdb L_6ibl.pdb 1
#       Creating user name   mateusz
#       Creation time:       Wed Apr  3 10:19:32 2019


#       File generated by GOLD software.
#

@<TRIPOS>MOLECULE
C:\Users\porto\OneDrive\projekt\beta1\ligandy\L_6ibl.pdb L_6ibl.pdb 1|6ibl|mol2|1|dock3
    58    59     1
SMALL
GASTEIGER


@<TRIPOS>ATOM
      1 C1         -21.1700   7.5505  15.9968 C.3            1 <1>               -0.0494
      2 N1         -22.7618   9.1127  17.1322 N.3            1 <1>               -0.3104
      3 O1         -23.0022   2.3151  13.1079 O.3            1 <1>               -0.4951
      4 C2         -22.5680   7.7362  16.6174 C.3            1 <1>                0.0089
      5 N2         -24.4976  11.8510  23.1807 N.am           1 <1>               -0.2852
      6 O2         -24.8923  13.9008  21.5205 O.3            1 <1>               -0.5049
      7 C3         -23.6985   7.3706  15.6306 C.3            1 <1>               -0.0125
      8 O3         -23.6202  10.0242  24.1884 O.2            1 <1>               -0.2792
      9 C4         -23.5085   6.0296  14.9531 C.ar           1 <1>               -0.0457
     10 O4         -22.9040   8.1187  19.6207 O.3            1 <1>               -0.3859
     11 C5         -23.4809   5.9286  13.5646 C.ar           1 <1>               -0.0551
     12 C6         -23.3062   4.7098  12.9269 C.ar           1 <1>               -0.0197
     13 C7         -23.1579   3.5513  13.6882 C.ar           1 <1>                0.1201
     14 C8         -23.1707   3.6354  15.0803 C.ar           1 <1>               -0.0197
     15 C9         -23.3509   4.8664  15.6984 C.ar           1 <1>               -0.0551
     16 C10        -23.0242   2.1863  11.6827 C.3            1 <1>                0.0788
     17 C11        -21.7478   9.5556  18.0952 C.3            1 <1>                0.0264
     18 C12        -22.1544   9.3249  19.5493 C.3            1 <1>                0.0927
     19 C13        -22.8754  10.5668  20.0644 C.ar           1 <1>               -0.0160
     20 C14        -23.3418  10.6110  21.3776 C.ar           1 <1>               -0.0312
     21 C15        -24.0095  11.7349  21.8600 C.ar           1 <1>                0.0755
     22 C16        -24.2351  12.8299  21.0186 C.ar           1 <1>                0.1380
     23 C17        -23.7611  12.7879  19.7089 C.ar           1 <1>               -0.0180
     24 C18        -23.0924  11.6712  19.2485 C.ar           1 <1>               -0.0525
     25 C19        -24.2942  11.0423  24.2192 C.2            1 <1>                0.2042
     26 H11        -21.0669   6.5293  15.6313 H              1 <1>                0.0245
     27 H12        -21.0442   8.2475  15.1677 H              1 <1>                0.0245
     28 H13        -20.4078   7.7443  16.7519 H              1 <1>                0.0245
     29 HN1        -23.6731   9.1358  17.5670 H              1 <1>                0.1223
     30 H2         -22.6420   7.0561  17.4664 H              1 <1>                0.0461
     31 HN2        -25.0699  12.6764  23.2875 H              1 <1>                0.1546
     32 HO2        -24.2683  14.4803  21.9643 H              1 <1>                0.2922
     33 H31        -23.7832   8.1496  14.8726 H              1 <1>                0.0328
     34 H32        -24.6534   7.3778  16.1564 H              1 <1>                0.0328
     35 HO4        -23.8405   8.3189  19.5499 H              1 <1>                0.2103
     36 H5         -23.5971   6.8130  12.9563 H              1 <1>                0.0621
     37 H6         -23.2862   4.6627  11.8483 H              1 <1>                0.0654
     38 H8         -23.0410   2.7440  15.6763 H              1 <1>                0.0654
     39 H9         -23.3669   4.9106  16.7776 H              1 <1>                0.0621
     40 H101       -22.8866   1.1402  11.4096 H              1 <1>                0.0660
     41 H102       -23.9825   2.5382  11.3004 H              1 <1>                0.0660
     42 H103       -22.2207   2.7831  11.2508 H              1 <1>                0.0660
     43 H111       -21.5404  10.6145  17.9409 H              1 <1>                0.0453
     44 H112       -20.8088   9.0388  17.8954 H              1 <1>                0.0453
     45 H12        -21.2457   9.1931  20.1374 H              1 <1>                0.0656
     46 H14        -23.1871   9.7678  22.0347 H              1 <1>                0.0641
     47 H17        -23.9160  13.6298  19.0511 H              1 <1>                0.0655
     48 H18        -22.7350  11.6687  18.2294 H              1 <1>                0.0622
     49 H19        -24.7412  11.2696  25.1758 H              1 <1>                0.1255
     50 ****       -22.6779   9.7428  16.3602 LP             1 <1>                0.0000
     51 ****       -22.1196   1.9604  13.4163 LP             1 <1>                0.0000
     52 ****       -23.7364   1.7356  13.4616 LP             1 <1>                0.0000
     53 ****       -25.5831  13.5917  22.1741 LP             1 <1>                0.0000
     54 ****       -25.3371  14.3981  20.7755 LP             1 <1>                0.0000
     55 ****       -23.1732   9.7461  23.3382 LP             1 <1>                0.0000
     56 ****       -23.5154   9.4688  25.0133 LP             1 <1>                0.0000
     57 ****       -22.7250   7.6663  20.4944 LP             1 <1>                0.0000
     58 ****       -22.6348   7.5141  18.8710 LP             1 <1>                0.0000
@<TRIPOS>BOND
    1    1    4 1     
    2    1   26 1     
    3    1   27 1     
    4    1   28 1     
    5    2   17 1     
    6    2    4 1     
    7    2   29 1     
    8    3   16 1     
    9    3   13 1     
   10    4    7 1     
   11    4   30 1     
   12    5   25 am    
   13    5   21 1     
   14    5   31 1     
   15    6   22 1     
   16    6   32 1     
   17    7    9 1     
   18    7   33 1     
   19    7   34 1     
   20    8   25 2     
   21    9   11 ar    
   22    9   15 ar    
   23   10   18 1     
   24   10   35 1     
   25   11   12 ar    
   26   11   36 1     
   27   12   13 ar    
   28   12   37 1     
   29   13   14 ar    
   30   14   15 ar    
   31   14   38 1     
   32   15   39 1     
   33   16   40 1     
   34   16   41 1     
   35   16   42 1     
   36   17   18 1     
   37   17   43 1     
   38   17   44 1     
   39   18   19 1     
   40   18   45 1     
   41   19   20 ar    
   42   19   24 ar    
   43   20   21 ar    
   44   20   46 1     
   45   21   22 ar    
   46   22   23 ar    
   47   23   24 ar    
   48   23   47 1     
   49   24   48 1     
   50   25   49 1     
   51    2   50 1     
   52    3   51 1     
   53    3   52 1     
   54    6   53 1     
   55    6   54 1     
   56    8   55 1     
   57    8   56 1     
   58   10   57 1     
   59   10   58 1     
@<TRIPOS>SUBSTRUCTURE
      1 ****           1
@<TRIPOS>SET
LONE_PAIRS      STATIC     ATOMS    <user>   **** ""
9 50 51 52 53 54 55 56 57 58
DONOR_HYDROGENS      STATIC     ATOMS    <user>   **** ""
4 29 31 32 35
ATOM$BLUE        STATIC     ATOMS    COLORGROUP SYSTEM
9 50 51 52 53 54 55 56 57 58
ATOM$RED        STATIC     ATOMS    COLORGROUP SYSTEM
4 29 31 32 35
@<TRIPOS>COMMENT
> <Gold.Version>
5.5

> <Gold.Id.Protein>
unknown|bialko_beta1|pdb

> <Gold.Protein.ActiveResidues>
 ALA86   ASP87   VAL90   VAL94   VAL95   GLY98   ALA99   LEU101  VAL102  CYS114 
 GLU115  TRP117  THR118  SER119  LEU120  ASP121  VAL122  CYS124  VAL125  THR126 
 SER128  SER173  PHE174  ILE177  CYS199  ASP200  PHE201  TYR207  SER215  PHE299 
 TRP303  PHE306  PHE307  ASN310  PHE325  VAL326  ASN329  TRP330  GLY332  TYR333 
 SER336 

> <Gold.Score>
     Score     S(PLP)   S(hbond)     S(cho)   S(metal)  DE(clash)   DE(tors)     intcor
     75.24     -73.35       0.90       0.00       0.00       0.00       0.64       0.48

> <Gold.PLP.Fitness>
75.2373

> <Gold.PLP.PLP>
-73.3496

> <Gold.PLP.part.hbond>
-3.0000

> <Gold.PLP.part.metal>
0.0000

> <Gold.PLP.part.buried>
-9.1211

> <Gold.PLP.part.nonpolar>
-60.7682

> <Gold.PLP.part.repulsive>
0.3665

> <Gold.PLP.ligand.clash>
0.0000

> <Gold.PLP.ligand.torsion>
0.6419

> <Gold.PLP.Chemscore.Hbond>
0.8960

> <Gold.PLP.Chemscore.CHOScore>
0.0000

> <Gold.PLP.Chemscore.Metal>
0.0000

> <Gold.Chemscore.Hbonds>
donor molecule, donor type, donor heavy atom, donor atom, acceptor molecule, acceptor atom, score
      L1  H    10    35       P1  2066  0.90

> <Gold.PLP.Chemscore.Internal.Correction>
0.4835

