#       Name:                C:\Users\porto\OneDrive\projekt\beta2\ligandy\L_3nya.pdb L_3nya.pdb 1
#       Creating user name   student
#       Creation time:       Mon Apr 01 15:21:23 2019


#       File generated by GOLD software.
#

@<TRIPOS>MOLECULE
C:\Users\porto\OneDrive\projekt\beta2\ligandy\L_3nya.pdb L_3nya.pdb 1|3nya|mol2|1|dock8
    46    46     1
SMALL
GASTEIGER


@<TRIPOS>ATOM
      1 C1         -34.5228   5.6991   8.0303 C.3            1 <1>               -0.0499
      2 N1         -32.8533   7.5185   7.8426 N.3            1 <1>               -0.3112
      3 O1         -33.0084  10.3726   8.0566 O.3            1 <1>               -0.3872
      4 C2         -33.8776   6.7405   7.1144 C.3            1 <1>                0.0021
      5 O2         -29.6410  10.3728   6.8632 O.3            1 <1>               -0.4891
      6 C3         -33.2255   6.0789   5.9050 C.3            1 <1>               -0.0499
      7 C4         -32.1308   8.4143   6.9296 C.3            1 <1>                0.0254
      8 C5         -31.8062   9.7177   7.6394 C.3            1 <1>                0.1015
      9 C6         -31.0368  10.5905   6.6671 C.3            1 <1>                0.1166
     10 C7         -28.6885  11.1816   6.2941 C.ar           1 <1>                0.1241
     11 C8         -29.0410  12.4281   5.7805 C.ar           1 <1>               -0.0197
     12 C9         -28.0781  13.2449   5.2031 C.ar           1 <1>               -0.0583
     13 C10        -26.7563  12.8256   5.1376 C.ar           1 <1>               -0.0613
     14 C11        -26.3976  11.5905   5.6498 C.ar           1 <1>               -0.0548
     15 C12        -27.3605  10.7666   6.2295 C.ar           1 <1>               -0.0020
     16 C13        -26.9381   9.4261   6.7827 C.3            1 <1>               -0.0063
     17 C14        -26.0147   8.7601   5.7960 C.2            1 <1>               -0.0867
     18 C15        -24.9093   8.1709   6.2076 C.2            1 <1>               -0.1023
     19 H11        -35.2737   5.1391   7.4722 H              1 <1>                0.0245
     20 H12        -33.7583   5.0152   8.3985 H              1 <1>                0.0245
     21 H13        -34.9977   6.2002   8.8741 H              1 <1>                0.0245
     22 HN1        -33.2984   8.0748   8.5588 H              1 <1>                0.1223
     23 HO1        -33.2497  11.0407   7.4110 H              1 <1>                0.2100
     24 H2         -34.6510   7.4243   6.7634 H              1 <1>                0.0455
     25 H31        -32.7751   6.8422   5.2713 H              1 <1>                0.0245
     26 H32        -32.4543   5.3854   6.2416 H              1 <1>                0.0245
     27 H33        -33.9800   5.5349   5.3372 H              1 <1>                0.0245
     28 H41        -32.7507   8.6207   6.0568 H              1 <1>                0.0450
     29 H42        -31.2052   7.9356   6.6082 H              1 <1>                0.0450
     30 H5         -31.1844   9.5113   8.5108 H              1 <1>                0.0640
     31 H61        -31.3062  10.3208   5.6455 H              1 <1>                0.0723
     32 H62        -31.2706  11.6381   6.8556 H              1 <1>                0.0723
     33 H8         -30.0668  12.7628   5.8311 H              1 <1>                0.0654
     34 H9         -28.3564  14.2088   4.8038 H              1 <1>                0.0619
     35 H10        -26.0097  13.4622   4.6877 H              1 <1>                0.0618
     36 H11        -25.3694  11.2633   5.6007 H              1 <1>                0.0622
     37 H131       -27.8192   8.8016   6.9343 H              1 <1>                0.0357
     38 H132       -26.4157   9.5720   7.7277 H              1 <1>                0.0357
     39 H14        -26.2636   8.7670   4.7450 H              1 <1>                0.0570
     40 H151       -24.2528   7.6957   5.4932 H              1 <1>                0.0532
     41 H152       -24.6603   8.1640   7.2586 H              1 <1>                0.0532
     42 ****       -32.2045   6.8774   8.2523 LP             1 <1>                0.0000
     43 ****       -32.8605  10.8062   8.9455 LP             1 <1>                0.0000
     44 ****       -33.7450   9.7005   8.1320 LP             1 <1>                0.0000
     45 ****       -29.4538   9.4471   6.5347 LP             1 <1>                0.0000
     46 ****       -29.4880  10.4134   7.8506 LP             1 <1>                0.0000
@<TRIPOS>BOND
    1    1    4 1     
    2    1   19 1     
    3    1   20 1     
    4    1   21 1     
    5    2    4 1     
    6    2    7 1     
    7    2   22 1     
    8    3    8 1     
    9    3   23 1     
   10    4    6 1     
   11    4   24 1     
   12    5    9 1     
   13    5   10 1     
   14    6   25 1     
   15    6   26 1     
   16    6   27 1     
   17    7    8 1     
   18    7   28 1     
   19    7   29 1     
   20    8    9 1     
   21    8   30 1     
   22    9   31 1     
   23    9   32 1     
   24   10   11 ar    
   25   10   15 ar    
   26   11   12 ar    
   27   11   33 1     
   28   12   13 ar    
   29   12   34 1     
   30   13   14 ar    
   31   13   35 1     
   32   14   15 ar    
   33   14   36 1     
   34   15   16 1     
   35   16   17 1     
   36   16   37 1     
   37   16   38 1     
   38   17   18 2     
   39   17   39 1     
   40   18   40 1     
   41   18   41 1     
   42    2   42 1     
   43    3   43 1     
   44    3   44 1     
   45    5   45 1     
   46    5   46 1     
@<TRIPOS>SUBSTRUCTURE
      1 ****           1
@<TRIPOS>SET
LONE_PAIRS      STATIC     ATOMS    <user>   **** ""
5 42 43 44 45 46
DONOR_HYDROGENS      STATIC     ATOMS    <user>   **** ""
2 22 23
ATOM$BLUE        STATIC     ATOMS    COLORGROUP SYSTEM
5 42 43 44 45 46
ATOM$RED        STATIC     ATOMS    COLORGROUP SYSTEM
2 22 23
@<TRIPOS>COMMENT
> <Gold.Version>
5.5

> <Gold.Id.Protein>
unknown|dok_beta2|pdb

> <Gold.Protein.RotatedTorsions>
[ 4175 4166 4165 4163 ] final  -14.09 input -179.98 | X-H torsion
[ 1294 1290 1288 1285 ] final   11.40 input -179.99 | X-H torsion
[ 4033 4024 4023 4021 ] final   22.42 input  179.98 | X-H torsion
[ 1412 1408 1406 1403 ] final  136.86 input -179.99 | X-H torsion
[ 2830 2825 2824 2821 ] final  135.20 input -179.98 | X-H torsion
[ 2723 2714 2713 2711 ] final   -7.84 input -179.98 | X-H torsion
[ 2773 2768 2767 2764 ] final -120.43 input  180.00 | X-H torsion

> <Gold.Protein.ActiveResidues>
 TRP109  THR110  ASP113  VAL114  VAL117  THR118  PHE193  TYR199  SER203  SER207 
 PHE208  TRP286  PHE289  PHE290  ASN293  TYR308  ASN312  TYR316 

> <Gold.Protein.RotatedAtoms>
  -35.3952    4.6841    1.8587 H   0  0  0  0  0  0  0  0  0  0  0  0  # atno 1294 bound_to 1290
  -27.8191   14.5190    1.7889 H   0  0  0  0  0  0  0  0  0  0  0  0  # atno 1412 bound_to 1408
  -26.0869    8.0569    1.3139 H   0  0  0  0  0  0  0  0  0  0  0  0  # atno 2723 bound_to 2714
  -24.6522    9.8457    3.7445 H   0  0  0  0  0  0  0  0  0  0  0  0  # atno 2773 bound_to 2768
  -24.3223   12.7200    3.0947 H   0  0  0  0  0  0  0  0  0  0  0  0  # atno 2830 bound_to 2825
  -29.3295    6.0060   10.6243 H   0  0  0  0  0  0  0  0  0  0  0  0  # atno 4033 bound_to 4024
  -37.3943    8.2676    8.3637 H   0  0  0  0  0  0  0  0  0  0  0  0  # atno 4175 bound_to 4166
  -36.0172    8.9994    8.0046 LP  0  0  0  0  0  0  0  0  0  0  0  0  # atno 4597 bound_to 4166
  -37.3193    9.1496    7.0305 LP  0  0  0  0  0  0  0  0  0  0  0  0  # atno 4598 bound_to 4166
  -34.0629    4.1494    2.5661 LP  0  0  0  0  0  0  0  0  0  0  0  0  # atno 4603 bound_to 1290
  -34.4901    3.6163    1.0829 LP  0  0  0  0  0  0  0  0  0  0  0  0  # atno 4604 bound_to 1290
  -27.8971    5.5546   11.1780 LP  0  0  0  0  0  0  0  0  0  0  0  0  # atno 4607 bound_to 4024
  -28.4607    7.0617   11.4567 LP  0  0  0  0  0  0  0  0  0  0  0  0  # atno 4608 bound_to 4024
  -27.9959   15.0236    3.2973 LP  0  0  0  0  0  0  0  0  0  0  0  0  # atno 4611 bound_to 1408
  -26.5297   15.0433    2.5786 LP  0  0  0  0  0  0  0  0  0  0  0  0  # atno 4612 bound_to 1408
  -23.3164   13.7754    2.4354 LP  0  0  0  0  0  0  0  0  0  0  0  0  # atno 4613 bound_to 2825
  -24.9165   13.8369    2.1150 LP  0  0  0  0  0  0  0  0  0  0  0  0  # atno 4614 bound_to 2825

> <Gold.Score>
     Score     S(PLP)   S(hbond)     S(cho)   S(metal)  DE(clash)   DE(tors)     intcor
     69.76     -64.35       2.56       0.00       0.00       0.00       1.24       0.22

> <Gold.PLP.Fitness>
69.7566

> <Gold.PLP.PLP>
-64.3538

> <Gold.PLP.part.hbond>
-3.3697

> <Gold.PLP.part.metal>
0.0000

> <Gold.PLP.part.buried>
-8.3152

> <Gold.PLP.part.nonpolar>
-53.6473

> <Gold.PLP.part.repulsive>
0.0000

> <Gold.PLP.ligand.clash>
0.0000

> <Gold.PLP.ligand.torsion>
1.2440

> <Gold.PLP.Chemscore.Hbond>
2.5579

> <Gold.PLP.Chemscore.CHOScore>
0.0000

> <Gold.PLP.Chemscore.Metal>
0.0000

> <Gold.Chemscore.Hbonds>
donor molecule, donor type, donor heavy atom, donor atom, acceptor molecule, acceptor atom, score
      L1  H     2    22       P1  4098  1.00
      L1  H     3    23       P1  1334  0.80
      P1  H  4097  4104       L1     3  0.76

> <Gold.PLP.Chemscore.Internal.Correction>
0.2172

