#       Name:                C:\Users\porto\OneDrive\projekt\beta1\ligandy\L_4amj.pdb L_4amj.pdb 1
#       Creating user name   student
#       Creation time:       Mon Apr 08 16:09:45 2019


#       File generated by GOLD software.
#

@<TRIPOS>MOLECULE
C:\Users\porto\OneDrive\projekt\beta1\ligandy\L_4amj.pdb L_4amj.pdb 1|4amj|mol2|1|dock65
    65    68     1
SMALL
GASTEIGER


@<TRIPOS>ATOM
      1 C1         -22.8615   9.8192  18.5171 C.3            1 <1>                0.1015
      2 N1         -26.6270  15.1232  20.0386 N.pl3          1 <1>               -0.3540
      3 O1         -23.3750   9.4174  19.7887 O.3            1 <1>               -0.3872
      4 C2         -22.4681  11.2723  18.6352 C.3            1 <1>                0.1166
      5 N2         -24.2031   8.3108  17.1490 N.3            1 <1>               -0.3102
      6 O2         -23.6744  12.0334  18.4634 O.3            1 <1>               -0.4887
      7 C3         -24.1984  12.6656  19.5442 C.ar           1 <1>                0.1303
      8 O3         -23.8801   6.1912  14.7589 O.3            1 <1>               -0.4870
      9 C4         -25.1453  13.6562  19.3902 C.ar           1 <1>                0.0490
     10 O4         -24.2759   6.3889  12.0194 O.3            1 <1>               -0.4915
     11 C5         -25.8355  14.0955  18.2752 C.ar           1 <1>                0.0109
     12 C6         -25.6586  14.2881  20.4868 C.ar           1 <1>                0.0510
     13 C7         -26.7409  15.0562  18.6698 C.ar           1 <1>                0.0476
     14 C8         -25.7023  13.7806  16.9446 C.ar           1 <1>               -0.0519
     15 C9         -27.5472  15.6732  17.7284 C.ar           1 <1>               -0.0378
     16 C10        -27.4138  15.3922  16.3559 C.ar           1 <1>               -0.0598
     17 C11        -26.5028  14.4438  15.9694 C.ar           1 <1>               -0.0611
     18 C12        -25.1806  13.9880  21.7304 C.ar           1 <1>               -0.0375
     19 C13        -24.2161  13.0554  21.8911 C.ar           1 <1>               -0.0563
     20 C14        -23.6945  12.3846  20.7970 C.ar           1 <1>               -0.0192
     21 C15        -23.9666   9.7424  17.4635 C.3            1 <1>                0.0253
     22 C16        -23.0709   7.8019  16.2941 C.3            1 <1>                0.0302
     23 C17        -23.3159   6.3191  16.0657 C.3            1 <1>                0.1022
     24 C18        -23.5830   5.1068  13.9213 C.ar           1 <1>                0.1619
     25 C19        -23.7833   5.1990  12.5484 C.ar           1 <1>                0.1615
     26 C20        -23.4691   4.1275  11.6955 C.ar           1 <1>               -0.0163
     27 C21        -23.0028   2.9376  12.2097 C.ar           1 <1>               -0.0581
     28 C22        -22.8047   2.8423  13.5852 C.ar           1 <1>               -0.0581
     29 C23        -23.0821   3.9291  14.4219 C.ar           1 <1>               -0.0163
     30 C24        -24.7533   6.4005  10.6615 C.3            1 <1>                0.0790
     31 H1         -22.0067   9.2063  18.2310 H              1 <1>                0.0640
     32 HN1        -27.1505  15.6871  20.6927 H              1 <1>                0.1659
     33 HO1        -24.0717   8.7699  19.6627 H              1 <1>                0.2100
     34 H21        -21.7655  11.5232  17.8411 H              1 <1>                0.0723
     35 H22        -22.0609  11.4581  19.6291 H              1 <1>                0.0723
     36 HN2        -25.0741   8.2121  16.6480 H              1 <1>                0.1221
     37 H8         -24.9903  13.0296  16.6359 H              1 <1>                0.0624
     38 H9         -28.2954  16.3852  18.0424 H              1 <1>                0.0638
     39 H10        -28.0216  15.9196  15.6347 H              1 <1>                0.0618
     40 H11        -26.3922  14.1997  14.9228 H              1 <1>                0.0618
     41 H12        -25.5734  14.4974  22.5978 H              1 <1>                0.0638
     42 H13        -23.8455  12.8271  22.8793 H              1 <1>                0.0619
     43 H14        -22.9080  11.6534  20.9107 H              1 <1>                0.0654
     44 H151       -23.6452  10.2635  16.5622 H              1 <1>                0.0450
     45 H152       -24.8801  10.1823  17.8635 H              1 <1>                0.0450
     46 H161       -22.1275   7.9363  16.8236 H              1 <1>                0.0457
     47 H162       -23.0773   8.3220  15.3362 H              1 <1>                0.0457
     48 H171       -22.3665   5.7846  16.1043 H              1 <1>                0.0709
     49 H172       -24.0274   5.9508  16.8049 H              1 <1>                0.0709
     50 H20        -23.5927   4.2330  10.6283 H              1 <1>                0.0655
     51 H21        -22.8004   2.1069  11.5497 H              1 <1>                0.0619
     52 H22        -22.4334   1.9236  14.0150 H              1 <1>                0.0619
     53 H23        -22.8947   3.8287  15.4804 H              1 <1>                0.0655
     54 H241       -25.1010   7.4013  10.4068 H              1 <1>                0.0660
     55 H242       -23.9443   6.1158   9.9895 H              1 <1>                0.0660
     56 H243       -25.5761   5.6932  10.5592 H              1 <1>                0.0660
     57 ****       -23.7437  10.2149  20.2663 LP             1 <1>                0.0000
     58 ****       -22.6394   9.0138  20.3327 LP             1 <1>                0.0000
     59 ****       -24.2507   7.7838  17.9976 LP             1 <1>                0.0000
     60 ****       -24.3734  11.4061  18.1202 LP             1 <1>                0.0000
     61 ****       -23.4868  12.7330  17.7739 LP             1 <1>                0.0000
     62 ****       -24.8725   6.1850  14.8825 LP             1 <1>                0.0000
     63 ****       -23.6119   7.0135  14.2571 LP             1 <1>                0.0000
     64 ****       -25.0373   6.6756  12.6008 LP             1 <1>                0.0000
     65 ****       -23.5397   7.0631  12.0776 LP             1 <1>                0.0000
@<TRIPOS>BOND
    1    1    4 1     
    2    1   21 1     
    3    1    3 1     
    4    1   31 1     
    5    2   12 ar    
    6    2   13 ar    
    7    2   32 1     
    8    3   33 1     
    9    4    6 1     
   10    4   34 1     
   11    4   35 1     
   12    5   22 1     
   13    5   21 1     
   14    5   36 1     
   15    6    7 1     
   16    7    9 ar    
   17    7   20 ar    
   18    8   24 1     
   19    8   23 1     
   20    9   11 ar    
   21    9   12 ar    
   22   10   30 1     
   23   10   25 1     
   24   11   13 ar    
   25   11   14 ar    
   26   12   18 ar    
   27   13   15 ar    
   28   14   17 ar    
   29   14   37 1     
   30   15   16 ar    
   31   15   38 1     
   32   16   17 ar    
   33   16   39 1     
   34   17   40 1     
   35   18   19 ar    
   36   18   41 1     
   37   19   20 ar    
   38   19   42 1     
   39   20   43 1     
   40   21   44 1     
   41   21   45 1     
   42   22   23 1     
   43   22   46 1     
   44   22   47 1     
   45   23   48 1     
   46   23   49 1     
   47   24   25 ar    
   48   24   29 ar    
   49   25   26 ar    
   50   26   27 ar    
   51   26   50 1     
   52   27   28 ar    
   53   27   51 1     
   54   28   29 ar    
   55   28   52 1     
   56   29   53 1     
   57   30   54 1     
   58   30   55 1     
   59   30   56 1     
   60    3   57 1     
   61    3   58 1     
   62    5   59 1     
   63    6   60 1     
   64    6   61 1     
   65    8   62 1     
   66    8   63 1     
   67   10   64 1     
   68   10   65 1     
@<TRIPOS>SUBSTRUCTURE
      1 ****           1
@<TRIPOS>SET
LONE_PAIRS      STATIC     ATOMS    <user>   **** ""
9 57 58 59 60 61 62 63 64 65
DONOR_HYDROGENS      STATIC     ATOMS    <user>   **** ""
3 32 33 36
ATOM$BLUE        STATIC     ATOMS    COLORGROUP SYSTEM
9 57 58 59 60 61 62 63 64 65
ATOM$RED        STATIC     ATOMS    COLORGROUP SYSTEM
3 32 33 36
@<TRIPOS>COMMENT
> <Gold.Version>
5.5

> <Gold.Id.Protein>
unknown|bialko_beta1|pdb

> <Gold.Protein.ActiveResidues>
 ALA86   ASP87   VAL90   VAL94   VAL95   GLY98   ALA99   LEU101  VAL102  CYS114 
 GLU115  TRP117  THR118  SER119  LEU120  ASP121  VAL122  CYS124  VAL125  THR126 
 SER128  SER173  PHE174  ILE177  CYS199  ASP200  PHE201  TYR207  SER215  PHE299 
 TRP303  PHE306  PHE307  ASN310  PHE325  VAL326  ASN329  TRP330  GLY332  TYR333 
 SER336 

> <Gold.Score>
     Score     S(PLP)   S(hbond)     S(cho)   S(metal)  DE(clash)   DE(tors)     intcor
     92.31     -92.92       1.00       0.00       0.00       0.98       1.85       1.07

> <Gold.PLP.Fitness>
92.3070

> <Gold.PLP.PLP>
-92.9192

> <Gold.PLP.part.hbond>
-2.8434

> <Gold.PLP.part.metal>
0.0000

> <Gold.PLP.part.buried>
-11.5063

> <Gold.PLP.part.nonpolar>
-80.5249

> <Gold.PLP.part.repulsive>
0.2093

> <Gold.PLP.ligand.clash>
0.9796

> <Gold.PLP.ligand.torsion>
1.8536

> <Gold.PLP.Chemscore.Hbond>
1.0000

> <Gold.PLP.Chemscore.CHOScore>
0.0000

> <Gold.PLP.Chemscore.Metal>
0.0000

> <Gold.Chemscore.Hbonds>
donor molecule, donor type, donor heavy atom, donor atom, acceptor molecule, acceptor atom, score
      L1  H     3    33       P1  2066  1.00

> <Gold.PLP.Chemscore.Internal.Correction>
1.0745

