#       Name:                C:\Users\porto\OneDrive\projekt\beta1\ligandy\L_6h7m.pdb L_6h7m.pdb 1
#       Creating user name   mateusz
#       Creation time:       Wed Apr  3 10:13:51 2019


#       File generated by GOLD software.
#

@<TRIPOS>MOLECULE
C:\Users\porto\OneDrive\projekt\beta1\ligandy\L_6h7m.pdb L_6h7m.pdb 1|6h7m|mol2|1|dock3
    45    45     1
SMALL
GASTEIGER


@<TRIPOS>ATOM
      1 C1         -23.9696   6.0461  16.8973 C.3            1 <1>                0.0926
      2 N1         -23.4919   8.3912  17.4850 N.3            1 <1>               -0.3086
      3 O1         -23.1562   3.2389  12.0257 O.3            1 <1>               -0.5064
      4 C2         -23.7678   6.1496  11.9042 C.3            1 <1>                0.0727
      5 O2         -25.0679   6.7429  11.7359 O.3            1 <1>               -0.3903
      6 C3         -22.9380   7.1691  16.9270 C.3            1 <1>                0.0266
      7 O3         -23.8993   5.2515  18.0877 O.3            1 <1>               -0.3859
      8 C4         -22.6540   9.3638  18.1822 C.3            1 <1>                0.0108
      9 C5         -21.3205   9.5125  17.4129 C.3            1 <1>               -0.0473
     10 C6         -22.4108   8.9029  19.6322 C.3            1 <1>               -0.0473
     11 C7         -23.4216  10.6969  18.2022 C.3            1 <1>               -0.0473
     12 C8         -23.7545   5.2843  15.6316 C.ar           1 <1>               -0.0174
     13 C9         -23.4650   3.9180  15.6198 C.ar           1 <1>               -0.0526
     14 C10        -23.2732   3.2396  14.4135 C.ar           1 <1>               -0.0195
     15 C11        -23.3501   3.9118  13.1887 C.ar           1 <1>                0.1222
     16 C12        -23.6471   5.3623  13.1903 C.ar           1 <1>                0.0195
     17 C13        -23.8386   5.9916  14.4183 C.ar           1 <1>               -0.0472
     18 H1         -24.9594   6.5001  16.8531 H              1 <1>                0.0656
     19 HN1        -24.2077   8.0516  18.1113 H              1 <1>                0.1225
     20 HO1        -23.1559   3.8587  11.2931 H              1 <1>                0.2921
     21 H21        -23.5561   5.4960  11.0582 H              1 <1>                0.0608
     22 H22        -23.0074   6.9306  11.8851 H              1 <1>                0.0608
     23 HO2        -25.3370   6.6713  10.8170 H              1 <1>                0.2098
     24 H31        -22.5817   7.3619  15.9151 H              1 <1>                0.0453
     25 H32        -22.0786   6.8560  17.5197 H              1 <1>                0.0453
     26 HO3        -24.2311   5.7592  18.8321 H              1 <1>                0.2103
     27 H51        -20.6848  10.2362  17.9227 H              1 <1>                0.0247
     28 H52        -20.8130   8.5481  17.3738 H              1 <1>                0.0247
     29 H53        -21.5223   9.8578  16.3991 H              1 <1>                0.0247
     30 H61        -21.7854   9.6332  20.1459 H              1 <1>                0.0247
     31 H62        -23.3655   8.8145  20.1511 H              1 <1>                0.0247
     32 H63        -21.9096   7.9347  19.6273 H              1 <1>                0.0247
     33 H71        -22.8267  11.4515  18.7158 H              1 <1>                0.0247
     34 H72        -23.6142  11.0208  17.1792 H              1 <1>                0.0247
     35 H73        -24.3688  10.5633  18.7249 H              1 <1>                0.0247
     36 H9         -23.3875   3.3743  16.5496 H              1 <1>                0.0622
     37 H10        -23.0618   2.1802  14.4176 H              1 <1>                0.0654
     38 H13        -24.0568   7.0493  14.4237 H              1 <1>                0.0626
     39 ****       -23.7616   8.9522  16.7023 LP             1 <1>                0.0000
     40 ****       -23.8920   2.5737  11.8990 LP             1 <1>                0.0000
     41 ****       -22.2778   2.7621  12.0591 LP             1 <1>                0.0000
     42 ****       -25.0304   7.7072  11.9978 LP             1 <1>                0.0000
     43 ****       -25.7292   6.2658  12.3148 LP             1 <1>                0.0000
     44 ****       -22.9491   4.9912  18.2589 LP             1 <1>                0.0000
     45 ****       -24.4548   4.4281  17.9719 LP             1 <1>                0.0000
@<TRIPOS>BOND
    1    1    6 1     
    2    1    7 1     
    3    1   12 1     
    4    1   18 1     
    5    2    8 1     
    6    2    6 1     
    7    2   19 1     
    8    3   15 1     
    9    3   20 1     
   10    4   16 1     
   11    4    5 1     
   12    4   21 1     
   13    4   22 1     
   14    5   23 1     
   15    6   24 1     
   16    6   25 1     
   17    7   26 1     
   18    8    9 1     
   19    8   10 1     
   20    8   11 1     
   21    9   27 1     
   22    9   28 1     
   23    9   29 1     
   24   10   30 1     
   25   10   31 1     
   26   10   32 1     
   27   11   33 1     
   28   11   34 1     
   29   11   35 1     
   30   12   13 ar    
   31   12   17 ar    
   32   13   14 ar    
   33   13   36 1     
   34   14   15 ar    
   35   14   37 1     
   36   15   16 ar    
   37   16   17 ar    
   38   17   38 1     
   39    2   39 1     
   40    3   40 1     
   41    3   41 1     
   42    5   42 1     
   43    5   43 1     
   44    7   44 1     
   45    7   45 1     
@<TRIPOS>SUBSTRUCTURE
      1 ****           1
@<TRIPOS>SET
LONE_PAIRS      STATIC     ATOMS    <user>   **** ""
7 39 40 41 42 43 44 45
DONOR_HYDROGENS      STATIC     ATOMS    <user>   **** ""
4 19 20 23 26
ATOM$BLUE        STATIC     ATOMS    COLORGROUP SYSTEM
7 39 40 41 42 43 44 45
ATOM$RED        STATIC     ATOMS    COLORGROUP SYSTEM
4 19 20 23 26
@<TRIPOS>COMMENT
> <Gold.Version>
5.5

> <Gold.Id.Protein>
unknown|bialko_beta1|pdb

> <Gold.Protein.ActiveResidues>
 ALA86   ASP87   VAL90   VAL94   VAL95   GLY98   ALA99   LEU101  VAL102  CYS114 
 GLU115  TRP117  THR118  SER119  LEU120  ASP121  VAL122  CYS124  VAL125  THR126 
 SER128  SER173  PHE174  ILE177  CYS199  ASP200  PHE201  TYR207  SER215  PHE299 
 TRP303  PHE306  PHE307  ASN310  PHE325  VAL326  ASN329  TRP330  GLY332  TYR333 
 SER336 

> <Gold.Score>
     Score     S(PLP)   S(hbond)     S(cho)   S(metal)  DE(clash)   DE(tors)     intcor
     55.42     -53.96       1.05       0.00       0.00       0.00       0.93       0.16

> <Gold.PLP.Fitness>
55.4184

> <Gold.PLP.PLP>
-53.9605

> <Gold.PLP.part.hbond>
-4.6235

> <Gold.PLP.part.metal>
0.0000

> <Gold.PLP.part.buried>
-3.8573

> <Gold.PLP.part.nonpolar>
-44.0678

> <Gold.PLP.part.repulsive>
0.0000

> <Gold.PLP.ligand.clash>
0.0000

> <Gold.PLP.ligand.torsion>
0.9260

> <Gold.PLP.Chemscore.Hbond>
1.0515

> <Gold.PLP.Chemscore.CHOScore>
0.0000

> <Gold.PLP.Chemscore.Metal>
0.0000

> <Gold.Chemscore.Hbonds>
donor molecule, donor type, donor heavy atom, donor atom, acceptor molecule, acceptor atom, score
      L1  H     2    19       P1  2066  1.00
      L1  H     7    26       P1  2066  0.05

> <Gold.PLP.Chemscore.Internal.Correction>
0.1554

