#       Name:                C:\Users\porto\OneDrive\projekt\beta1\ligandy\L_5a8e.pdb L_5a8e.pdb 1
#       Creating user name   student
#       Creation time:       Mon Apr 08 16:28:27 2019


#       File generated by GOLD software.
#

@<TRIPOS>MOLECULE
C:\Users\porto\OneDrive\projekt\beta1\ligandy\L_5a8e.pdb L_5a8e.pdb 1|5a8e|mol2|1|dock8
    51    52     1
SMALL
GASTEIGER


@<TRIPOS>ATOM
      1 C1         -23.7194  10.1695  22.5260 C.ar           1 <1>                0.1185
      2 N1         -24.2841  11.3708  22.2947 N.pl3          1 <1>               -0.3459
      3 O1         -22.8759   9.3258  18.2707 O.3            1 <1>               -0.4887
      4 C2         -23.2772   9.5160  21.3892 C.ar           1 <1>               -0.0151
      5 N2         -22.7468   5.5656  15.1774 N.3            1 <1>               -0.3088
      6 O2         -23.4401   6.6841  17.8670 O.3            1 <1>               -0.3872
      7 C3         -23.6225  10.4164  20.3362 C.ar           1 <1>                0.0428
      8 N3         -23.3767   9.2511  24.8289 N.1            1 <1>               -0.1893
      9 C4         -23.4696  10.4147  18.8537 C.ar           1 <1>                0.1298
     10 C5         -23.9421  11.5061  18.1027 C.ar           1 <1>               -0.0190
     11 C6         -24.5515  12.6089  18.7013 C.ar           1 <1>               -0.0534
     12 C7         -24.7279  12.6903  20.0781 C.ar           1 <1>               -0.0263
     13 C8         -24.2708  11.5886  20.9585 C.ar           1 <1>                0.0539
     14 C9         -23.1932   8.8644  16.9572 C.3            1 <1>                0.1166
     15 C10        -22.8092   7.4066  16.8066 C.3            1 <1>                0.1015
     16 C11        -23.2385   6.9069  15.4251 C.3            1 <1>                0.0256
     17 C12        -23.6165   4.4780  14.7434 C.3            1 <1>                0.0108
     18 C13        -22.7470   3.3183  14.2583 C.3            1 <1>               -0.0473
     19 C14        -24.4622   4.9542  13.5592 C.3            1 <1>               -0.0473
     20 C15        -24.4975   4.0641  15.9291 C.3            1 <1>               -0.0473
     21 C16        -23.5614   9.6652  23.7544 C.1            1 <1>                0.1171
     22 C17        -25.3709  13.8873  20.7012 C.3            1 <1>               -0.0377
     23 HN1        -24.6238  11.9262  23.0662 H              1 <1>                0.1665
     24 H2         -22.8013   8.5504  21.4720 H              1 <1>                0.0653
     25 HN2        -22.3173   5.3225  16.0595 H              1 <1>                0.1225
     26 HO2        -24.0322   7.2683  18.3451 H              1 <1>                0.2100
     27 H5         -23.8383  11.5068  17.0274 H              1 <1>                0.0654
     28 H6         -24.9009  13.4296  18.0919 H              1 <1>                0.0622
     29 H91        -22.6519   9.4601  16.2230 H              1 <1>                0.0723
     30 H92        -24.2626   8.9783  16.7815 H              1 <1>                0.0723
     31 H10        -21.7272   7.3099  16.9016 H              1 <1>                0.0640
     32 H111       -24.3262   6.9130  15.3593 H              1 <1>                0.0451
     33 H112       -22.8541   7.5817  14.6601 H              1 <1>                0.0451
     34 H131       -23.3845   2.4974  13.9303 H              1 <1>                0.0247
     35 H132       -22.1281   3.6513  13.4255 H              1 <1>                0.0247
     36 H133       -22.1073   2.9777  15.0720 H              1 <1>                0.0247
     37 H141       -25.1156   4.1459  13.2298 H              1 <1>                0.0247
     38 H142       -25.0679   5.8078  13.8643 H              1 <1>                0.0247
     39 H143       -23.8068   5.2479  12.7393 H              1 <1>                0.0247
     40 H151       -25.1571   3.2505  15.6256 H              1 <1>                0.0247
     41 H152       -23.8661   3.7311  16.7529 H              1 <1>                0.0247
     42 H153       -25.0971   4.9154  16.2524 H              1 <1>                0.0247
     43 H171       -25.4144  13.7550  21.7827 H              1 <1>                0.0278
     44 H172       -24.7868  14.7768  20.4671 H              1 <1>                0.0278
     45 H173       -26.3809  14.0031  20.3088 H              1 <1>                0.0278
     46 ****       -21.8951   9.5211  18.2623 LP             1 <1>                0.0000
     47 ****       -23.0571   8.5556  18.8822 LP             1 <1>                0.0000
     48 ****       -22.1834   5.6330  14.3540 LP             1 <1>                0.0000
     49 ****       -22.7427   6.3326  18.4916 LP             1 <1>                0.0000
     50 ****       -23.9614   5.9206  17.4858 LP             1 <1>                0.0000
     51 ****       -23.2182   8.8960  25.7502 LP             1 <1>                0.0000
@<TRIPOS>BOND
    1    1    2 ar    
    2    1    4 ar    
    3    1   21 1     
    4    2   13 ar    
    5    2   23 1     
    6    3   14 1     
    7    3    9 1     
    8    4    7 ar    
    9    4   24 1     
   10    5   17 1     
   11    5   16 1     
   12    5   25 1     
   13    6   15 1     
   14    6   26 1     
   15    7    9 ar    
   16    7   13 ar    
   17    8   21 3     
   18    9   10 ar    
   19   10   11 ar    
   20   10   27 1     
   21   11   12 ar    
   22   11   28 1     
   23   12   22 1     
   24   12   13 ar    
   25   14   15 1     
   26   14   29 1     
   27   14   30 1     
   28   15   16 1     
   29   15   31 1     
   30   16   32 1     
   31   16   33 1     
   32   17   18 1     
   33   17   19 1     
   34   17   20 1     
   35   18   34 1     
   36   18   35 1     
   37   18   36 1     
   38   19   37 1     
   39   19   38 1     
   40   19   39 1     
   41   20   40 1     
   42   20   41 1     
   43   20   42 1     
   44   22   43 1     
   45   22   44 1     
   46   22   45 1     
   47    3   46 1     
   48    3   47 1     
   49    5   48 1     
   50    6   49 1     
   51    6   50 1     
   52    8   51 1     
@<TRIPOS>SUBSTRUCTURE
      1 ****           1
@<TRIPOS>SET
LONE_PAIRS      STATIC     ATOMS    <user>   **** ""
6 46 47 48 49 50 51
DONOR_HYDROGENS      STATIC     ATOMS    <user>   **** ""
3 23 25 26
ATOM$BLUE        STATIC     ATOMS    COLORGROUP SYSTEM
6 46 47 48 49 50 51
ATOM$RED        STATIC     ATOMS    COLORGROUP SYSTEM
3 23 25 26
@<TRIPOS>COMMENT
> <Gold.Version>
5.5

> <Gold.Id.Protein>
unknown|bialko_beta1|pdb

> <Gold.Protein.ActiveResidues>
 ALA86   ASP87   VAL90   VAL94   VAL95   GLY98   ALA99   LEU101  VAL102  CYS114 
 GLU115  TRP117  THR118  SER119  LEU120  ASP121  VAL122  CYS124  VAL125  THR126 
 SER128  SER173  PHE174  ILE177  CYS199  ASP200  PHE201  TYR207  SER215  PHE299 
 TRP303  PHE306  PHE307  ASN310  PHE325  VAL326  ASN329  TRP330  GLY332  TYR333 
 SER336 

> <Gold.Score>
     Score     S(PLP)   S(hbond)     S(cho)   S(metal)  DE(clash)   DE(tors)     intcor
     61.95     -60.59       0.98       0.00       0.00       0.00       0.99       0.42

> <Gold.PLP.Fitness>
61.9503

> <Gold.PLP.PLP>
-60.5901

> <Gold.PLP.part.hbond>
-2.0000

> <Gold.PLP.part.metal>
0.0000

> <Gold.PLP.part.buried>
-7.9569

> <Gold.PLP.part.nonpolar>
-51.7570

> <Gold.PLP.part.repulsive>
0.9628

> <Gold.PLP.ligand.clash>
0.0000

> <Gold.PLP.ligand.torsion>
0.9945

> <Gold.PLP.Chemscore.Hbond>
0.9760

> <Gold.PLP.Chemscore.CHOScore>
0.0000

> <Gold.PLP.Chemscore.Metal>
0.0000

> <Gold.Chemscore.Hbonds>
donor molecule, donor type, donor heavy atom, donor atom, acceptor molecule, acceptor atom, score
      L1  H     6    26       P1  2066  0.98

> <Gold.PLP.Chemscore.Internal.Correction>
0.4212

