#       Name:                C:\Users\porto\OneDrive\projekt\beta2\ligandy\L_2rh1.pdb L_2rh1.pdb 1
#       Creating user name   student
#       Creation time:       Mon Apr 01 15:44:04 2019


#       File generated by GOLD software.
#

@<TRIPOS>MOLECULE
C:\Users\porto\OneDrive\projekt\beta2\ligandy\L_2rh1.pdb L_2rh1.pdb 1|2rh1|mol2|1|dock7
    49    51     1
SMALL
GASTEIGER


@<TRIPOS>ATOM
      1 C1         -25.6805   7.1821   7.0438 C.ar           1 <1>               -0.0598
      2 C2         -25.0403   8.2083   6.3584 C.ar           1 <1>               -0.0378
      3 C3         -25.7172   9.3725   6.0797 C.ar           1 <1>                0.0476
      4 C4         -27.1027   9.4851   6.5212 C.ar           1 <1>                0.0109
      5 C5         -27.7233   8.4524   7.2009 C.ar           1 <1>               -0.0519
      6 C6         -27.0037   7.3006   7.4591 C.ar           1 <1>               -0.0611
      7 N7         -25.3990  10.5486   5.4399 N.pl3          1 <1>               -0.3540
      8 C8         -26.4862  11.3908   5.4507 C.ar           1 <1>                0.0510
      9 C9         -27.5696  10.7021   6.1426 C.ar           1 <1>                0.0490
     10 C10        -26.7190  12.6466   4.9731 C.ar           1 <1>               -0.0375
     11 C11        -27.9550  13.2457   5.1449 C.ar           1 <1>               -0.0563
     12 C12        -28.9837  12.5875   5.8042 C.ar           1 <1>               -0.0192
     13 C13        -28.8079  11.2968   6.3175 C.ar           1 <1>                0.1303
     14 O14        -29.8132  10.6472   6.9644 O.3            1 <1>               -0.4887
     15 C15        -31.1041  11.1870   7.1721 C.3            1 <1>                0.1166
     16 C16        -31.9483  10.1804   7.9130 C.3            1 <1>                0.1015
     17 O17        -33.2074  10.7631   8.2032 O.3            1 <1>               -0.3872
     18 C18        -32.1100   8.9146   7.0657 C.3            1 <1>                0.0254
     19 N19        -33.2338   8.0935   7.5052 N.3            1 <1>               -0.3112
     20 C20        -33.4213   6.7419   7.0078 C.3            1 <1>                0.0021
     21 C21        -33.1894   6.7284   5.4981 C.3            1 <1>               -0.0499
     22 C22        -34.8173   6.2399   7.3888 C.3            1 <1>               -0.0499
     23 H1         -25.1276   6.2775   7.2524 H              1 <1>                0.0618
     24 H2         -24.0134   8.0907   6.0461 H              1 <1>                0.0638
     25 H5         -28.7500   8.5557   7.5186 H              1 <1>                0.0624
     26 H6         -27.4780   6.4880   7.9891 H              1 <1>                0.0618
     27 HN7        -24.4750  10.6792   5.0526 H              1 <1>                0.1659
     28 H10        -25.9362  13.1817   4.4565 H              1 <1>                0.0638
     29 H11        -28.1305  14.2405   4.7631 H              1 <1>                0.0619
     30 H12        -29.9416  13.0709   5.9288 H              1 <1>                0.0654
     31 H151       -31.5644  11.4086   6.2091 H              1 <1>                0.0723
     32 H152       -31.0254  12.0991   7.7631 H              1 <1>                0.0723
     33 H16        -31.4530   9.9204   8.8485 H              1 <1>                0.0640
     34 HO17       -33.7527  10.7567   7.4138 H              1 <1>                0.2100
     35 H181       -31.1927   8.3279   7.1119 H              1 <1>                0.0450
     36 H182       -32.2511   9.1926   6.0211 H              1 <1>                0.0450
     37 HN19       -33.1876   7.9677   8.5058 H              1 <1>                0.1223
     38 H20        -32.6808   6.0943   7.4770 H              1 <1>                0.0455
     39 H211       -33.3282   5.7165   5.1177 H              1 <1>                0.0245
     40 H212       -33.9001   7.3984   5.0142 H              1 <1>                0.0245
     41 H213       -32.1734   7.0601   5.2824 H              1 <1>                0.0245
     42 H221       -34.9541   5.2253   7.0138 H              1 <1>                0.0245
     43 H222       -34.9210   6.2428   8.4741 H              1 <1>                0.0245
     44 H223       -35.5717   6.8939   6.9508 H              1 <1>                0.0245
     45 ****       -29.4578  10.4384   7.8755 LP             1 <1>                0.0000
     46 ****       -29.9544   9.7961   6.4586 LP             1 <1>                0.0000
     47 ****       -33.0757  11.7058   8.5097 LP             1 <1>                0.0000
     48 ****       -33.6592  10.2381   8.9246 LP             1 <1>                0.0000
     49 ****       -33.9852   8.6326   7.1248 LP             1 <1>                0.0000
@<TRIPOS>BOND
    1    1    6 ar    
    2    1    2 ar    
    3    1   23 1     
    4    2    3 ar    
    5    2   24 1     
    6    3    4 ar    
    7    3    7 ar    
    8    4    5 ar    
    9    4    9 ar    
   10    5    6 ar    
   11    5   25 1     
   12    6   26 1     
   13    7    8 ar    
   14    7   27 1     
   15    8    9 ar    
   16    8   10 ar    
   17    9   13 ar    
   18   10   11 ar    
   19   10   28 1     
   20   11   12 ar    
   21   11   29 1     
   22   12   13 ar    
   23   12   30 1     
   24   13   14 1     
   25   14   15 1     
   26   15   16 1     
   27   15   31 1     
   28   15   32 1     
   29   16   18 1     
   30   16   17 1     
   31   16   33 1     
   32   17   34 1     
   33   18   19 1     
   34   18   35 1     
   35   18   36 1     
   36   19   20 1     
   37   19   37 1     
   38   20   21 1     
   39   20   22 1     
   40   20   38 1     
   41   21   39 1     
   42   21   40 1     
   43   21   41 1     
   44   22   42 1     
   45   22   43 1     
   46   22   44 1     
   47   14   45 1     
   48   14   46 1     
   49   17   47 1     
   50   17   48 1     
   51   19   49 1     
@<TRIPOS>SUBSTRUCTURE
      1 ****           1
@<TRIPOS>SET
LONE_PAIRS      STATIC     ATOMS    <user>   **** ""
5 45 46 47 48 49
DONOR_HYDROGENS      STATIC     ATOMS    <user>   **** ""
3 27 34 37
ATOM$BLUE        STATIC     ATOMS    COLORGROUP SYSTEM
5 45 46 47 48 49
ATOM$RED        STATIC     ATOMS    COLORGROUP SYSTEM
3 27 34 37
@<TRIPOS>COMMENT
> <Gold.Version>
5.5

> <Gold.Id.Protein>
unknown|dok_beta2|pdb

> <Gold.Protein.RotatedTorsions>
[ 4175 4166 4165 4163 ] final -147.39 input -179.98 | X-H torsion
[ 1294 1290 1288 1285 ] final -161.42 input -179.99 | X-H torsion
[ 4033 4024 4023 4021 ] final   90.27 input  179.98 | X-H torsion
[ 1412 1408 1406 1403 ] final   32.26 input -179.99 | X-H torsion
[ 2830 2825 2824 2821 ] final   41.88 input -179.98 | X-H torsion
[ 2723 2714 2713 2711 ] final  114.43 input -179.98 | X-H torsion
[ 2773 2768 2767 2764 ] final  -63.63 input  180.00 | X-H torsion

> <Gold.Protein.ActiveResidues>
 TRP109  THR110  ASP113  VAL114  VAL117  THR118  PHE193  TYR199  SER203  SER207 
 PHE208  TRP286  PHE289  PHE290  ASN293  TYR308  ASN312  TYR316 

> <Gold.Protein.RotatedAtoms>
  -33.8919    3.6841    1.9097 H   0  0  0  0  0  0  0  0  0  0  0  0  # atno 1294 bound_to 1290
  -28.1493   14.9417    3.1166 H   0  0  0  0  0  0  0  0  0  0  0  0  # atno 1412 bound_to 1408
  -27.0201    6.9650    1.9837 H   0  0  0  0  0  0  0  0  0  0  0  0  # atno 2723 bound_to 2714
  -24.2083   10.5760    3.8467 H   0  0  0  0  0  0  0  0  0  0  0  0  # atno 2773 bound_to 2768
  -23.2956   13.4467    2.7091 H   0  0  0  0  0  0  0  0  0  0  0  0  # atno 2830 bound_to 2825
  -29.1499    6.9020   11.0557 H   0  0  0  0  0  0  0  0  0  0  0  0  # atno 4033 bound_to 4024
  -36.0688    9.1122    7.8260 H   0  0  0  0  0  0  0  0  0  0  0  0  # atno 4175 bound_to 4166
  -37.4937    9.0385    7.1013 LP  0  0  0  0  0  0  0  0  0  0  0  0  # atno 4597 bound_to 4166
  -37.2246    8.2301    8.4944 LP  0  0  0  0  0  0  0  0  0  0  0  0  # atno 4598 bound_to 4166
  -35.1883    4.0808    1.0592 LP  0  0  0  0  0  0  0  0  0  0  0  0  # atno 4603 bound_to 1290
  -34.9313    4.7271    2.5367 LP  0  0  0  0  0  0  0  0  0  0  0  0  # atno 4604 bound_to 1290
  -28.7952    5.3938   10.6534 LP  0  0  0  0  0  0  0  0  0  0  0  0  # atno 4607 bound_to 4024
  -27.7498    6.2894   11.5319 LP  0  0  0  0  0  0  0  0  0  0  0  0  # atno 4608 bound_to 4024
  -26.5879   15.1178    2.8127 LP  0  0  0  0  0  0  0  0  0  0  0  0  # atno 4611 bound_to 1408
  -27.5936   14.5085    1.6796 LP  0  0  0  0  0  0  0  0  0  0  0  0  # atno 4612 bound_to 1408
  -24.5771   14.0771    1.9876 LP  0  0  0  0  0  0  0  0  0  0  0  0  # atno 4613 bound_to 2825
  -24.7263   12.7775    2.9650 LP  0  0  0  0  0  0  0  0  0  0  0  0  # atno 4614 bound_to 2825

> <Gold.Score>
     Score     S(PLP)   S(hbond)     S(cho)   S(metal)  DE(clash)   DE(tors)     intcor
     88.53     -80.04       3.00       0.00       0.00       0.00       0.30       0.09

> <Gold.PLP.Fitness>
88.5273

> <Gold.PLP.PLP>
-80.0417

> <Gold.PLP.part.hbond>
-4.4154

> <Gold.PLP.part.metal>
0.0000

> <Gold.PLP.part.buried>
-10.2573

> <Gold.PLP.part.nonpolar>
-66.8655

> <Gold.PLP.part.repulsive>
0.0884

> <Gold.PLP.ligand.clash>
0.0000

> <Gold.PLP.ligand.torsion>
0.3018

> <Gold.PLP.Chemscore.Hbond>
3.0000

> <Gold.PLP.Chemscore.CHOScore>
0.0000

> <Gold.PLP.Chemscore.Metal>
0.0000

> <Gold.Chemscore.Hbonds>
donor molecule, donor type, donor heavy atom, donor atom, acceptor molecule, acceptor atom, score
      L1  H    17    34       P1  1334  1.00
      L1  H    19    37       P1  4098  1.00
      P1  H  4097  4104       L1    17  1.00

> <Gold.PLP.Chemscore.Internal.Correction>
0.0893

