#       Name:                C:\Users\porto\OneDrive\projekt\beta2\ligandy\L_2rh1.pdb L_2rh1.pdb 1
#       Creating user name   student
#       Creation time:       Mon Apr 08 15:48:53 2019


#       File generated by GOLD software.
#

@<TRIPOS>MOLECULE
C:\Users\porto\OneDrive\projekt\beta2\ligandy\L_2rh1.pdb L_2rh1.pdb 1|2rh1|mol2|1|dock4
    49    51     1
SMALL
GASTEIGER


@<TRIPOS>ATOM
      1 C1         -25.5832   7.2615   6.9493 C.ar           1 <1>               -0.0598
      2 C2         -24.9775   8.3425   6.3189 C.ar           1 <1>               -0.0378
      3 C3         -25.7010   9.4862   6.0744 C.ar           1 <1>                0.0476
      4 C4         -27.0978   9.5192   6.4927 C.ar           1 <1>                0.0109
      5 C5         -27.6834   8.4329   7.1176 C.ar           1 <1>               -0.0519
      6 C6         -26.9177   7.3042   7.3429 C.ar           1 <1>               -0.0611
      7 N7         -25.4245  10.7007   5.4893 N.pl3          1 <1>               -0.3540
      8 C8         -26.5485  11.4930   5.5129 C.ar           1 <1>                0.0510
      9 C9         -27.6120  10.7291   6.1547 C.ar           1 <1>                0.0490
     10 C10        -26.8288  12.7560   5.0821 C.ar           1 <1>               -0.0375
     11 C11        -28.0934  13.2924   5.2537 C.ar           1 <1>               -0.0563
     12 C12        -29.1031  12.5627   5.8653 C.ar           1 <1>               -0.0192
     13 C13        -28.8787  11.2608   6.3291 C.ar           1 <1>                0.1303
     14 O14        -29.8653  10.5412   6.9292 O.3            1 <1>               -0.4887
     15 C15        -31.0480  11.1046   7.4627 C.3            1 <1>                0.1166
     16 C16        -31.9474   9.9969   7.9513 C.3            1 <1>                0.1015
     17 O17        -33.2606  10.5074   8.1065 O.3            1 <1>               -0.3872
     18 C18        -31.9239   8.8323   6.9567 C.3            1 <1>                0.0254
     19 N19        -32.7830   7.7290   7.3748 N.3            1 <1>               -0.3112
     20 C20        -32.9558   6.5500   6.5445 C.3            1 <1>                0.0021
     21 C21        -33.1117   6.9831   5.0880 C.3            1 <1>               -0.0499
     22 C22        -34.1543   5.7373   7.0437 C.3            1 <1>               -0.0499
     23 H1         -24.9941   6.3743   7.1319 H              1 <1>                0.0618
     24 H2         -23.9410   8.2834   6.0224 H              1 <1>                0.0638
     25 H5         -28.7192   8.4775   7.4189 H              1 <1>                0.0624
     26 H6         -27.3643   6.4502   7.8300 H              1 <1>                0.0618
     27 HN7        -24.5005  10.8879   5.1259 H              1 <1>                0.1659
     28 H10        -26.0617  13.3461   4.6032 H              1 <1>                0.0638
     29 H11        -28.3064  14.2934   4.9092 H              1 <1>                0.0619
     30 H12        -30.0838  12.9977   5.9906 H              1 <1>                0.0654
     31 H151       -31.5609  11.6739   6.6874 H              1 <1>                0.0723
     32 H152       -30.7942  11.7597   8.2957 H              1 <1>                0.0723
     33 H16        -31.5863   9.6456   8.9179 H              1 <1>                0.0640
     34 HO17       -33.6816  10.5745   7.2470 H              1 <1>                0.2100
     35 H181       -30.9012   8.4725   6.8439 H              1 <1>                0.0450
     36 H182       -32.2406   9.1865   5.9755 H              1 <1>                0.0450
     37 HN19       -32.4438   7.3503   8.2471 H              1 <1>                0.1223
     38 H20        -32.0609   5.9335   6.6279 H              1 <1>                0.0455
     39 H211       -33.2414   6.1028   4.4586 H              1 <1>                0.0245
     40 H212       -33.9838   7.6298   4.9914 H              1 <1>                0.0245
     41 H213       -32.2205   7.5260   4.7719 H              1 <1>                0.0245
     42 H221       -34.2805   4.8533   6.4180 H              1 <1>                0.0245
     43 H222       -33.9809   5.4301   8.0753 H              1 <1>                0.0245
     44 H223       -35.0553   6.3492   6.9942 H              1 <1>                0.0245
     45 ****       -29.4265  10.0633   7.6901 LP             1 <1>                0.0000
     46 ****       -30.1671   9.8752   6.2470 LP             1 <1>                0.0000
     47 ****       -33.2184  11.4130   8.5286 LP             1 <1>                0.0000
     48 ****       -33.7905   9.8921   8.6901 LP             1 <1>                0.0000
     49 ****       -33.6647   8.2007   7.3685 LP             1 <1>                0.0000
@<TRIPOS>BOND
    1    1    6 ar    
    2    1    2 ar    
    3    1   23 1     
    4    2    3 ar    
    5    2   24 1     
    6    3    4 ar    
    7    3    7 ar    
    8    4    5 ar    
    9    4    9 ar    
   10    5    6 ar    
   11    5   25 1     
   12    6   26 1     
   13    7    8 ar    
   14    7   27 1     
   15    8    9 ar    
   16    8   10 ar    
   17    9   13 ar    
   18   10   11 ar    
   19   10   28 1     
   20   11   12 ar    
   21   11   29 1     
   22   12   13 ar    
   23   12   30 1     
   24   13   14 1     
   25   14   15 1     
   26   15   16 1     
   27   15   31 1     
   28   15   32 1     
   29   16   18 1     
   30   16   17 1     
   31   16   33 1     
   32   17   34 1     
   33   18   19 1     
   34   18   35 1     
   35   18   36 1     
   36   19   20 1     
   37   19   37 1     
   38   20   21 1     
   39   20   22 1     
   40   20   38 1     
   41   21   39 1     
   42   21   40 1     
   43   21   41 1     
   44   22   42 1     
   45   22   43 1     
   46   22   44 1     
   47   14   45 1     
   48   14   46 1     
   49   17   47 1     
   50   17   48 1     
   51   19   49 1     
@<TRIPOS>SUBSTRUCTURE
      1 ****           1
@<TRIPOS>SET
LONE_PAIRS      STATIC     ATOMS    <user>   **** ""
5 45 46 47 48 49
DONOR_HYDROGENS      STATIC     ATOMS    <user>   **** ""
3 27 34 37
ATOM$BLUE        STATIC     ATOMS    COLORGROUP SYSTEM
5 45 46 47 48 49
ATOM$RED        STATIC     ATOMS    COLORGROUP SYSTEM
3 27 34 37
@<TRIPOS>COMMENT
> <Gold.Version>
5.5

> <Gold.Id.Protein>
unknown|dok_beta2|pdb

> <Gold.Protein.RotatedTorsions>
[ 4175 4166 4165 4163 ] final   71.72 input -179.98 | X-H torsion
[ 1294 1290 1288 1285 ] final  -71.06 input -179.99 | X-H torsion
[ 4033 4024 4023 4021 ] final   32.89 input  179.98 | X-H torsion
[ 1412 1408 1406 1403 ] final  -33.39 input -179.99 | X-H torsion
[ 2830 2825 2824 2821 ] final  161.86 input -179.98 | X-H torsion
[ 2723 2714 2713 2711 ] final  108.00 input -179.98 | X-H torsion
[ 2773 2768 2767 2764 ] final -126.75 input  180.00 | X-H torsion

> <Gold.Protein.ActiveResidues>
 TRP109  THR110  ASP113  VAL114  VAL117  THR118  PHE193  TYR199  SER203  SER207 
 PHE208  TRP286  PHE289  PHE290  ASN293  TYR308  ASN312  TYR316 

> <Gold.Protein.RotatedAtoms>
  -34.5179    4.5247    2.6510 H   0  0  0  0  0  0  0  0  0  0  0  0  # atno 1294 bound_to 1290
  -27.2335   15.2042    3.3506 H   0  0  0  0  0  0  0  0  0  0  0  0  # atno 1412 bound_to 1408
  -27.0007    6.9655    1.8841 H   0  0  0  0  0  0  0  0  0  0  0  0  # atno 2723 bound_to 2714
  -24.6811    9.7715    3.6844 H   0  0  0  0  0  0  0  0  0  0  0  0  # atno 2773 bound_to 2768
  -24.7057   12.8117    2.9585 H   0  0  0  0  0  0  0  0  0  0  0  0  # atno 2830 bound_to 2825
  -29.3738    6.1611   10.6601 H   0  0  0  0  0  0  0  0  0  0  0  0  # atno 4033 bound_to 4024
  -37.6736    8.8483    7.3138 H   0  0  0  0  0  0  0  0  0  0  0  0  # atno 4175 bound_to 4166
  -36.9026    8.2830    8.5972 LP  0  0  0  0  0  0  0  0  0  0  0  0  # atno 4597 bound_to 4166
  -36.1428    9.2606    7.5324 LP  0  0  0  0  0  0  0  0  0  0  0  0  # atno 4598 bound_to 4166
  -34.0439    3.5353    1.4858 LP  0  0  0  0  0  0  0  0  0  0  0  0  # atno 4603 bound_to 1290
  -35.4234    4.3965    1.3376 LP  0  0  0  0  0  0  0  0  0  0  0  0  # atno 4604 bound_to 1290
  -28.0022    5.4543   11.0859 LP  0  0  0  0  0  0  0  0  0  0  0  0  # atno 4607 bound_to 4024
  -28.3096    7.0005   11.5116 LP  0  0  0  0  0  0  0  0  0  0  0  0  # atno 4608 bound_to 4024
  -26.7897   14.7390    1.8851 LP  0  0  0  0  0  0  0  0  0  0  0  0  # atno 4611 bound_to 1408
  -28.3461   14.6138    2.3633 LP  0  0  0  0  0  0  0  0  0  0  0  0  # atno 4612 bound_to 1408
  -23.2560   13.4395    2.7049 LP  0  0  0  0  0  0  0  0  0  0  0  0  # atno 4613 bound_to 2825
  -24.5772   14.0770    1.9876 LP  0  0  0  0  0  0  0  0  0  0  0  0  # atno 4614 bound_to 2825

> <Gold.Score>
     Score     S(PLP)   S(hbond)     S(cho)   S(metal)  DE(clash)   DE(tors)     intcor
     85.66     -80.78       1.99       0.00       0.00       0.00       0.57       0.04

> <Gold.PLP.Fitness>
85.6605

> <Gold.PLP.PLP>
-80.7811

> <Gold.PLP.part.hbond>
-3.6588

> <Gold.PLP.part.metal>
0.0000

> <Gold.PLP.part.buried>
-10.5466

> <Gold.PLP.part.nonpolar>
-67.9235

> <Gold.PLP.part.repulsive>
0.0902

> <Gold.PLP.ligand.clash>
0.0000

> <Gold.PLP.ligand.torsion>
0.5662

> <Gold.PLP.Chemscore.Hbond>
1.9920

> <Gold.PLP.Chemscore.CHOScore>
0.0000

> <Gold.PLP.Chemscore.Metal>
0.0000

> <Gold.Chemscore.Hbonds>
donor molecule, donor type, donor heavy atom, donor atom, acceptor molecule, acceptor atom, score
      L1  H    17    34       P1  1334  1.00
      P1  H  4097  4104       L1    17  0.99

> <Gold.PLP.Chemscore.Internal.Correction>
0.0357

