#       Name:                C:\Users\porto\OneDrive\projekt\beta2\ligandy\L_3ny9.pdb L_3ny9.pdb 1
#       Creating user name   student
#       Creation time:       Wed Apr 10 10:01:40 2019


#       File generated by GOLD software.
#

@<TRIPOS>MOLECULE
C:\Users\porto\OneDrive\projekt\beta2\ligandy\L_3ny9.pdb L_3ny9.pdb 1|3ny9|mol2|1|dock19
    58    59     1
SMALL
GASTEIGER


@<TRIPOS>ATOM
      1 C1         -25.7004   5.8699   7.6676 C.2            1 <1>                0.3751
      2 N1         -33.8875   8.1792   7.9074 N.3            1 <1>               -0.3112
      3 O1         -24.7457   5.4784   7.0179 O.2            1 <1>               -0.2415
      4 C2         -25.5715   3.8866   9.2339 C.3            1 <1>                0.0901
      5 O2         -26.2243   5.0775   8.7755 O.3            1 <1>               -0.4593
      6 C3         -26.2845   3.3613  10.4630 C.3            1 <1>               -0.0306
      7 O3         -25.7679   8.0485   6.4615 O.3            1 <1>               -0.4478
      8 C4         -26.3403   7.1592   7.3166 C.ar           1 <1>                0.2156
      9 O4         -29.9025   9.9354   7.8147 O.3            1 <1>               -0.4886
     10 C5         -27.6375   7.7226   7.7594 C.ar           1 <1>                0.0131
     11 O5         -33.4102  10.9520   8.1427 O.3            1 <1>               -0.3872
     12 C6         -28.7080   7.2117   8.6872 C.3            1 <1>               -0.0352
     13 C7         -27.7862   8.9686   7.1285 C.ar           1 <1>                0.0655
     14 C8         -26.6139   9.0763   6.3731 C.ar           1 <1>                0.1398
     15 C9         -26.3749  10.1979   5.5859 C.ar           1 <1>               -0.0185
     16 C10        -27.3186  11.2259   5.5582 C.ar           1 <1>               -0.0548
     17 C11        -28.4886  11.1280   6.3074 C.ar           1 <1>               -0.0191
     18 C12        -28.7295  10.0049   7.1013 C.ar           1 <1>                0.1316
     19 C13        -31.0618  10.7436   7.5771 C.3            1 <1>                0.1166
     20 C14        -32.3015  10.0479   8.1466 C.3            1 <1>                0.1015
     21 C15        -32.6892   8.8160   7.3331 C.3            1 <1>                0.0254
     22 C16        -34.0192   6.7752   7.4401 C.3            1 <1>                0.0021
     23 C17        -35.2262   6.1229   8.1084 C.3            1 <1>               -0.0499
     24 C18        -34.1534   6.7028   5.9219 C.3            1 <1>               -0.0499
     25 HN1        -33.8191   8.1802   8.9154 H              1 <1>                0.1223
     26 H21        -24.5355   4.1141   9.4848 H              1 <1>                0.0695
     27 H22        -25.5992   3.1318   8.4480 H              1 <1>                0.0695
     28 H31        -25.7831   2.4603  10.8171 H              1 <1>                0.0262
     29 H32        -26.2657   4.1191  11.2458 H              1 <1>                0.0262
     30 H33        -27.3184   3.1261  10.2112 H              1 <1>                0.0262
     31 HO5        -33.6739  11.1324   7.2375 H              1 <1>                0.2100
     32 H61        -28.6160   7.7044   9.6556 H              1 <1>                0.0279
     33 H62        -29.6894   7.4260   8.2632 H              1 <1>                0.0279
     34 H63        -28.5951   6.1348   8.8150 H              1 <1>                0.0279
     35 H9         -25.4671  10.2664   5.0052 H              1 <1>                0.0654
     36 H10        -27.1439  12.1037   4.9530 H              1 <1>                0.0620
     37 H11        -29.2175  11.9244   6.2769 H              1 <1>                0.0654
     38 H131       -31.1882  10.8904   6.5048 H              1 <1>                0.0723
     39 H132       -30.9346  11.7123   8.0605 H              1 <1>                0.0723
     40 H14        -32.0964   9.7438   9.1730 H              1 <1>                0.0640
     41 H151       -32.8926   9.1103   6.3029 H              1 <1>                0.0450
     42 H152       -31.8634   8.1041   7.3361 H              1 <1>                0.0450
     43 H16        -33.1240   6.2283   7.7343 H              1 <1>                0.0455
     44 H171       -36.1284   6.6776   7.8504 H              1 <1>                0.0245
     45 H172       -35.3212   5.0935   7.7623 H              1 <1>                0.0245
     46 H173       -35.0925   6.1311   9.1897 H              1 <1>                0.0245
     47 H181       -33.2075   6.9859   5.4593 H              1 <1>                0.0245
     48 H182       -34.4117   5.6857   5.6278 H              1 <1>                0.0245
     49 H183       -34.9370   7.3854   5.5934 H              1 <1>                0.0245
     50 ****       -34.6894   8.6975   7.6104 LP             1 <1>                0.0000
     51 ****       -24.3125   4.6054   7.2419 LP             1 <1>                0.0000
     52 ****       -24.3959   6.0305   6.2610 LP             1 <1>                0.0000
     53 ****       -25.6358   7.6298   5.5630 LP             1 <1>                0.0000
     54 ****       -24.8859   8.3551   6.8193 LP             1 <1>                0.0000
     55 ****       -29.6465  10.1106   8.7653 LP             1 <1>                0.0000
     56 ****       -30.2143   8.9897   7.7223 LP             1 <1>                0.0000
     57 ****       -33.1448  11.8066   8.5890 LP             1 <1>                0.0000
     58 ****       -34.1764  10.5417   8.6373 LP             1 <1>                0.0000
@<TRIPOS>BOND
    1    1    3 2     
    2    1    5 1     
    3    1    8 1     
    4    2   21 1     
    5    2   22 1     
    6    2   25 1     
    7    4    5 1     
    8    4    6 1     
    9    4   26 1     
   10    4   27 1     
   11    6   28 1     
   12    6   29 1     
   13    6   30 1     
   14    7    8 ar    
   15    7   14 ar    
   16    8   10 ar    
   17    9   18 1     
   18    9   19 1     
   19   10   12 1     
   20   10   13 ar    
   21   11   20 1     
   22   11   31 1     
   23   12   32 1     
   24   12   33 1     
   25   12   34 1     
   26   13   14 ar    
   27   13   18 ar    
   28   14   15 ar    
   29   15   16 ar    
   30   15   35 1     
   31   16   17 ar    
   32   16   36 1     
   33   17   18 ar    
   34   17   37 1     
   35   19   20 1     
   36   19   38 1     
   37   19   39 1     
   38   20   21 1     
   39   20   40 1     
   40   21   41 1     
   41   21   42 1     
   42   22   23 1     
   43   22   24 1     
   44   22   43 1     
   45   23   44 1     
   46   23   45 1     
   47   23   46 1     
   48   24   47 1     
   49   24   48 1     
   50   24   49 1     
   51    2   50 1     
   52    3   51 1     
   53    3   52 1     
   54    7   53 1     
   55    7   54 1     
   56    9   55 1     
   57    9   56 1     
   58   11   57 1     
   59   11   58 1     
@<TRIPOS>SUBSTRUCTURE
      1 ****           1
@<TRIPOS>SET
LONE_PAIRS      STATIC     ATOMS    <user>   **** ""
9 50 51 52 53 54 55 56 57 58
DONOR_HYDROGENS      STATIC     ATOMS    <user>   **** ""
2 25 31
ATOM$BLUE        STATIC     ATOMS    COLORGROUP SYSTEM
9 50 51 52 53 54 55 56 57 58
ATOM$RED        STATIC     ATOMS    COLORGROUP SYSTEM
2 25 31
@<TRIPOS>COMMENT
> <Gold.Version>
5.6

> <Gold.Id.Protein>
unknown|dok_beta2|pdb

> <Gold.Protein.RotatedTorsions>
[ 4175 4166 4165 4163 ] final -131.58 input -179.98 | X-H torsion
[ 1294 1290 1288 1285 ] final -102.45 input -179.99 | X-H torsion
[ 4033 4024 4023 4021 ] final -129.81 input  179.98 | X-H torsion
[ 1412 1408 1406 1403 ] final  -60.48 input -179.99 | X-H torsion
[ 2830 2825 2824 2821 ] final -154.49 input -179.98 | X-H torsion
[ 2723 2714 2713 2711 ] final -136.22 input -179.98 | X-H torsion
[ 2773 2768 2767 2764 ] final  156.13 input  180.00 | X-H torsion

> <Gold.Protein.ActiveResidues>
 TRP109  THR110  ASP113  VAL114  VAL117  THR118  PHE193  TYR199  SER203  SER207 
 PHE208  TRP286  PHE289  PHE290  ASN293  TYR308  ASN312  TYR316 

> <Gold.Protein.RotatedAtoms>
  -34.1399    4.2233    2.5740 H   0  0  0  0  0  0  0  0  0  0  0  0  # atno 1294 bound_to 1290
  -26.8650   15.1986    3.1411 H   0  0  0  0  0  0  0  0  0  0  0  0  # atno 1412 bound_to 1408
  -26.4519    7.9743    2.8995 H   0  0  0  0  0  0  0  0  0  0  0  0  # atno 2723 bound_to 2714
  -24.5393    9.4528    2.6118 H   0  0  0  0  0  0  0  0  0  0  0  0  # atno 2773 bound_to 2768
  -25.0678   13.2289    2.5749 H   0  0  0  0  0  0  0  0  0  0  0  0  # atno 2830 bound_to 2825
  -27.7649    5.9861   11.4248 H   0  0  0  0  0  0  0  0  0  0  0  0  # atno 4033 bound_to 4024
  -36.0603    8.9786    8.0356 H   0  0  0  0  0  0  0  0  0  0  0  0  # atno 4175 bound_to 4166
  -37.2839    9.1685    7.0219 LP  0  0  0  0  0  0  0  0  0  0  0  0  # atno 4597 bound_to 4166
  -37.4432    8.2394    8.3553 LP  0  0  0  0  0  0  0  0  0  0  0  0  # atno 4598 bound_to 4166
  -34.4065    3.5857    1.1305 LP  0  0  0  0  0  0  0  0  0  0  0  0  # atno 4603 bound_to 1290
  -35.4548    4.6603    1.7731 LP  0  0  0  0  0  0  0  0  0  0  0  0  # atno 4604 bound_to 1290
  -28.9267    7.0677   11.2183 LP  0  0  0  0  0  0  0  0  0  0  0  0  # atno 4607 bound_to 4024
  -29.0609    5.5695   10.5827 LP  0  0  0  0  0  0  0  0  0  0  0  0  # atno 4608 bound_to 4024
  -27.1582   14.5956    1.6879 LP  0  0  0  0  0  0  0  0  0  0  0  0  # atno 4611 bound_to 1408
  -28.3617   14.7630    2.7788 LP  0  0  0  0  0  0  0  0  0  0  0  0  # atno 4612 bound_to 1408
  -23.5724   12.9193    3.0524 LP  0  0  0  0  0  0  0  0  0  0  0  0  # atno 4613 bound_to 2825
  -23.8834   14.1624    2.0401 LP  0  0  0  0  0  0  0  0  0  0  0  0  # atno 4614 bound_to 2825

> <Gold.Score>
     Fitness  S(hb_ext) S(vdw_ext)  S(hb_int)    S(int)      intcor
     67.37       9.54      42.72       0.00      -0.91      -7.34

> <Gold.Goldscore.Fitness>
67.3724

> <Gold.Goldscore.Internal.Vdw>
-5.2921

> <Gold.Goldscore.Internal.Torsion>
-2.9568

> <Gold.Goldscore.External.Vdw>
42.7249

> <Gold.Goldscore.Internal.HBond>
0.0000

> <Gold.Goldscore.External.HBond>
9.5384

> <Gold.Goldscore.Internal.Correction>
-7.3362

> <Gold.Goldscore.Hbonds>
donor molecule, donor type, donor heavy atom, donor atom, acceptor molecule, acceptor atom, score
      P1  H  4166  4175       L1     2  0.58
      P1  H  4097  4104       L1    11  0.44
      L1  H     2    25       P1  4098  1.00
      L1  H    11    31       P1  1334  0.92

> <Gold.Goldscore.Internal.Vdw.Weighted>
-5.2921

> <Gold.Goldscore.Internal.Torsion.Weighted>
-2.9568

> <Gold.Goldscore.External.Vdw.Weighted>
58.7467

> <Gold.Goldscore.Internal.HBond.Weighted>
0.0000

> <Gold.Goldscore.External.HBond.Weighted>
9.5384

> <Gold.Goldscore.Internal.Correction.Weighted>
-7.3362

