@<TRIPOS>MOLECULE
C:\Users\porto\OneDrive\projekt\beta2\ligandy\L_2rh1.pdb L_2rh1.pdb 1
 44 46 0 0 0
SMALL
GASTEIGER

@<TRIPOS>ATOM
      1  C1       -26.3950    6.4320    7.6890 C.ar  408  CAU408     -0.0598
      2  C2       -25.5890    7.3380    7.0090 C.ar  408  CAU408     -0.0378
      3  C3       -26.0960    8.5610    6.6370 C.ar  408  CAU408      0.0476
      4  C4       -27.4820    8.8630    6.9760 C.ar  408  CAU408      0.0109
      5  C5       -28.2690    7.9480    7.6520 C.ar  408  CAU408     -0.0519
      6  C6       -27.7170    6.7310    8.0060 C.ar  408  CAU408     -0.0611
      7  N7       -25.5930    9.6570    5.9740 N.ar  408  CAU408     -0.3540
      8  C8       -26.5650   10.6250    5.8750 C.ar  408  CAU408      0.0510
      9  C9       -27.7680   10.1080    6.5170 C.ar  408  CAU408      0.0490
     10  C10      -26.6080   11.8750    5.3320 C.ar  408  CAU408     -0.0375
     11  C11      -27.7680   12.6280    5.3930 C.ar  408  CAU408     -0.0563
     12  C12      -28.9110   12.1330    6.0050 C.ar  408  CAU408     -0.0192
     13  C13      -28.9310   10.8570    6.5810 C.ar  408  CAU408      0.1303
     14  O14      -30.0490   10.3670    7.1820 O.3   408  CAU408     -0.4887
     15  C15      -31.2420   11.1050    7.3640 C.3   408  CAU408      0.1166
     16  C16      -32.2670   10.2300    8.0410 C.3   408  CAU408      0.1015
     17  O17      -33.4770   10.9570    8.1700 O.3   408  CAU408     -0.3872
     18  C18      -32.4780    8.9510    7.2250 C.3   408  CAU408      0.0254
     19  N19      -33.7020    8.2500    7.6000 N.3   408  CAU408     -0.3112
     20  C20      -33.8060    6.8050    7.4980 C.3   408  CAU408      0.0021
     21  C21      -33.5330    6.3850    6.0550 C.3   408  CAU408     -0.0499
     22  C22      -35.1840    6.3500    7.9880 C.3   408  CAU408     -0.0499
     23  H1       -25.9740    5.4780    7.9720 H     408  CAU408      0.0618
     24  H2       -24.5670    7.0810    6.7740 H     408  CAU408      0.0638
     25  H5       -29.2930    8.1910    7.8930 H     408  CAU408      0.0624
     26  H6       -28.3220    6.0090    8.5340 H     408  CAU408      0.0618
     27  HN7      -24.6370    9.6550    5.6470 H     408  CAU408      0.1659
     28  H10      -25.7330   12.2850    4.8500 H     408  CAU408      0.0638
     29  H11      -27.7930   13.6170    4.9600 H     408  CAU408      0.0619
     30  H12      -29.8070   12.7350    6.0430 H     408  CAU408      0.0654
     31 H151      -31.6220   11.4260    6.3940 H     408  CAU408      0.0723
     32 H152      -31.0390   11.9750    7.9880 H     408  CAU408      0.0723
     33  H16      -31.9060    9.9620    9.0340 H     408  CAU408      0.0640
     34 HO17      -34.1360   10.4080    8.6000 H     408  CAU408      0.2100
     35 H181      -31.6240    8.2880    7.3630 H     408  CAU408      0.0450
     36 H182      -32.5130    9.1990    6.1640 H     408  CAU408      0.0450
     37 HN19      -33.9080    8.4290    8.5720 H     408  CAU408      0.1223
     38  H20      -33.0460    6.3570    8.1380 H     408  CAU408      0.0455
     39 H211      -33.6090    5.3010    5.9710 H     408  CAU408      0.0245
     40 H212      -34.2640    6.8520    5.3950 H     408  CAU408      0.0245
     41 H213      -32.5300    6.7010    5.7670 H     408  CAU408      0.0245
     42 H221      -35.2580    5.2650    7.9100 H     408  CAU408      0.0245
     43 H222      -35.3170    6.6490    9.0280 H     408  CAU408      0.0245
     44 H223      -35.9590    6.8120    7.3760 H     408  CAU408      0.0245
@<TRIPOS>BOND
     1     1     6   ar
     2     1     2   ar
     3     1    23    1
     4     2     3   ar
     5     2    24    1
     6     3     4   ar
     7     3     7   ar
     8     4     5   ar
     9     4     9   ar
    10     5     6   ar
    11     5    25    1
    12     6    26    1
    13     7     8   ar
    14     7    27    1
    15     8     9   ar
    16     8    10   ar
    17     9    13   ar
    18    10    11   ar
    19    10    28    1
    20    11    12   ar
    21    11    29    1
    22    12    13   ar
    23    12    30    1
    24    13    14    1
    25    14    15    1
    26    15    16    1
    27    15    31    1
    28    15    32    1
    29    16    18    1
    30    16    17    1
    31    16    33    1
    32    17    34    1
    33    18    19    1
    34    18    35    1
    35    18    36    1
    36    19    20    1
    37    19    37    1
    38    20    21    1
    39    20    22    1
    40    20    38    1
    41    21    39    1
    42    21    40    1
    43    21    41    1
    44    22    42    1
    45    22    43    1
    46    22    44    1
