@<TRIPOS>MOLECULE
C:\Users\porto\OneDrive\projekt\beta2\ligandy\L_3d4s.pdb L_3d4s.pdb 1
 45 46 0 0 0
SMALL
GASTEIGER

@<TRIPOS>ATOM
      1  O1       -26.5790    7.3390    8.2800 O.3   401  TIM401     -0.3767
      2  C2       -26.4720    7.5340    6.8770 C.3   401  TIM401      0.0634
      3  C3       -26.5510    9.0030    6.4240 C.3   401  TIM401      0.0372
      4  N4       -27.4210    9.8350    7.2170 N.pl3 401  TIM401     -0.3060
      5  C5       -27.6680    9.4680    8.5970 C.3   401  TIM401      0.0372
      6  C6       -27.7440    7.9530    8.7980 C.3   401  TIM401      0.0634
      7  C7       -27.8310   11.0770    6.7970 C.ar  401  TIM401      0.1942
      8  N8       -26.9590   11.9430    6.2540 N.ar  401  TIM401     -0.1717
      9  S9       -27.7430   13.3230    5.8390 S.2   401  TIM401      0.1206
     10  N10      -29.2550   12.9240    6.3220 N.ar  401  TIM401     -0.1530
     11  C11      -29.2220   11.6970    6.8200 C.ar  401  TIM401      0.2652
     12  O12      -30.3260   11.0660    7.3410 O.3   401  TIM401     -0.4710
     13  C13      -31.6320   11.6740    7.1200 C.3   401  TIM401      0.1183
     14  C14      -32.5150   10.7680    7.9910 C.3   401  TIM401      0.1016
     15  O15      -33.6540   11.4100    8.4860 O.3   401  TIM401     -0.3872
     16  C16      -32.8850    9.5220    7.2070 C.3   401  TIM401      0.0256
     17  N17      -34.0430    8.7550    7.6050 N.3   401  TIM401     -0.3088
     18  C18      -33.8190    7.3590    7.1520 C.3   401  TIM401      0.0108
     19  C19      -35.1370    6.6120    7.0120 C.3   401  TIM401     -0.0473
     20  C20      -33.1210    7.3910    5.7680 C.3   401  TIM401     -0.0473
     21  C21      -32.9280    6.6250    8.1750 C.3   401  TIM401     -0.0473
     22  H21      -27.2480    6.9590    6.3720 H     401  TIM401      0.0575
     23  H22      -25.5390    7.0970    6.5220 H     401  TIM401      0.0575
     24  H31      -26.8660    9.0420    5.3810 H     401  TIM401      0.0487
     25  H32      -25.5490    9.4330    6.4170 H     401  TIM401      0.0487
     26  H51      -28.5990    9.9250    8.9320 H     401  TIM401      0.0487
     27  H52      -26.8790    9.8780    9.2280 H     401  TIM401      0.0487
     28  H61      -27.8290    7.7320    9.8620 H     401  TIM401      0.0575
     29  H62      -28.6210    7.5620    8.2820 H     401  TIM401      0.0575
     30 H131      -31.9120   11.5460    6.0740 H     401  TIM401      0.0724
     31 H132      -31.6320   12.6810    7.5380 H     401  TIM401      0.0724
     32  H14      -31.9180   10.4520    8.8470 H     401  TIM401      0.0640
     33 HO15      -34.1620   10.7950    9.0200 H     401  TIM401      0.2100
     34 H161      -32.0200    8.8610    7.1620 H     401  TIM401      0.0451
     35 H162      -32.9750    9.7800    6.1520 H     401  TIM401      0.0451
     36 HN17      -34.1430    8.7910    8.6090 H     401  TIM401      0.1225
     37 H191      -34.9440    5.5920    6.6790 H     401  TIM401      0.0247
     38 H192      -35.6460    6.5890    7.9760 H     401  TIM401      0.0247
     39 H193      -35.7670    7.1190    6.2810 H     401  TIM401      0.0247
     40 H201      -32.9500    6.3710    5.4230 H     401  TIM401      0.0247
     41 H202      -33.7550    7.9150    5.0530 H     401  TIM401      0.0247
     42 H203      -32.1660    7.9100    5.8540 H     401  TIM401      0.0247
     43 H211      -32.7630    5.6000    7.8440 H     401  TIM401      0.0247
     44 H212      -31.9700    7.1390    8.2580 H     401  TIM401      0.0247
     45 H213      -33.4210    6.6170    9.1470 H     401  TIM401      0.0247
@<TRIPOS>BOND
     1     1     2    1
     2     1     6    1
     3     2     3    1
     4     2    22    1
     5     2    23    1
     6     3     4    1
     7     3    24    1
     8     3    25    1
     9     4     7    1
    10     4     5    1
    11     5     6    1
    12     5    26    1
    13     5    27    1
    14     6    28    1
    15     6    29    1
    16     7     8   ar
    17     7    11   ar
    18     8     9   ar
    19     9    10   ar
    20    10    11   ar
    21    11    12    1
    22    12    13    1
    23    13    14    1
    24    13    30    1
    25    13    31    1
    26    14    15    1
    27    14    16    1
    28    14    32    1
    29    15    33    1
    30    16    17    1
    31    16    34    1
    32    16    35    1
    33    17    18    1
    34    17    36    1
    35    18    19    1
    36    18    20    1
    37    18    21    1
    38    19    37    1
    39    19    38    1
    40    19    39    1
    41    20    40    1
    42    20    41    1
    43    20    42    1
    44    21    43    1
    45    21    44    1
    46    21    45    1
