@<TRIPOS>MOLECULE
C:\Users\porto\OneDrive\projekt\beta2\ligandy\L_3ny8.pdb L_3ny8.pdb 1
 47 48 0 0 0
SMALL
GASTEIGER

@<TRIPOS>ATOM
      1  C1       -26.1550    9.3290    6.9260 C.3   1203  JRZ1203    -0.0268
      2  N1       -34.2930    7.7730    7.8060 N.3   1203  JRZ1203    -0.3087
      3  O1       -30.7700   10.4010    8.0260 O.3   1203  JRZ1203    -0.4891
      4  C2       -26.9520    8.1310    7.3680 C.3   1203  JRZ1203    -0.0449
      5  O2       -34.4320   10.4710    7.8660 O.3   1203  JRZ1203    -0.3869
      6  C3       -28.1670    8.6400    8.1130 C.3   1203  JRZ1203    -0.0237
      7  C4       -28.4260    9.9950    7.4080 C.ar  1203  JRZ1203    -0.0023
      8  C5       -27.2620   10.3800    6.7270 C.ar  1203  JRZ1203    -0.0378
      9  C6       -27.2590   11.5480    5.9740 C.ar  1203  JRZ1203    -0.0468
     10  C7       -26.0050   11.9500    5.2100 C.3   1203  JRZ1203    -0.0394
     11  C8       -28.3930   12.3490    5.9010 C.ar  1203  JRZ1203    -0.0551
     12  C9       -29.5580   11.9700    6.5660 C.ar  1203  JRZ1203    -0.0194
     13  C10      -29.5860   10.7800    7.3080 C.ar  1203  JRZ1203     0.1241
     14  C11      -32.0660   10.8880    7.6590 C.3   1203  JRZ1203     0.1169
     15  C12      -33.1700    9.9240    8.1750 C.3   1203  JRZ1203     0.1041
     16  C13      -33.0430    8.4920    7.5730 C.3   1203  JRZ1203     0.0342
     17  C14      -32.8040    8.5480    6.0700 C.3   1203  JRZ1203    -0.0472
     18  C15      -34.1440    6.3300    7.8470 C.3   1203  JRZ1203     0.0023
     19  C16      -35.0510    5.7710    8.9330 C.3   1203  JRZ1203    -0.0499
     20  C17      -34.5780    5.7290    6.5140 C.3   1203  JRZ1203    -0.0499
     21  H11      -25.6890    9.1140    5.9640 H     1203  JRZ1203     0.0313
     22  H12      -25.5030    9.6460    7.7400 H     1203  JRZ1203     0.0313
     23  HN1      -34.6850    8.0570    8.6920 H     1203  JRZ1203     0.1225
     24  H21      -26.3470    7.5190    8.0370 H     1203  JRZ1203     0.0272
     25  H22      -27.2730    7.5660    6.4930 H     1203  JRZ1203     0.0272
     26  HO2      -35.1220    9.8830    8.1810 H     1203  JRZ1203     0.2100
     27  H31      -27.8980    8.8230    9.1530 H     1203  JRZ1203     0.0314
     28  H32      -29.0080    7.9720    7.9250 H     1203  JRZ1203     0.0314
     29  H71      -26.1860   12.8860    4.6810 H     1203  JRZ1203     0.0278
     30  H72      -25.1800   12.0820    5.9090 H     1203  JRZ1203     0.0278
     31  H73      -25.7510   11.1700    4.4920 H     1203  JRZ1203     0.0278
     32  H8       -28.3710   13.2650    5.3290 H     1203  JRZ1203     0.0621
     33  H9       -30.4390   12.5930    6.5100 H     1203  JRZ1203     0.0654
     34 H111      -32.1310   10.9660    6.5740 H     1203  JRZ1203     0.0723
     35 H112      -32.2180   11.8780    8.0900 H     1203  JRZ1203     0.0723
     36  H12      -33.0830    9.8500    9.2590 H     1203  JRZ1203     0.0643
     37  H13      -32.2210    7.9630    8.0550 H     1203  JRZ1203     0.0484
     38 H141      -31.8750    9.0810    5.8690 H     1203  JRZ1203     0.0245
     39 H142      -32.7340    7.5350    5.6750 H     1203  JRZ1203     0.0245
     40 H143      -33.6320    9.0690    5.5890 H     1203  JRZ1203     0.0245
     41  H15      -33.1070    6.0670    8.0550 H     1203  JRZ1203     0.0455
     42 H161      -34.9460    4.6870    8.9720 H     1203  JRZ1203     0.0245
     43 H162      -34.7710    6.1970    9.8960 H     1203  JRZ1203     0.0245
     44 H163      -36.0870    6.0280    8.7100 H     1203  JRZ1203     0.0245
     45 H171      -34.4640    4.6450    6.5490 H     1203  JRZ1203     0.0245
     46 H172      -35.6220    5.9780    6.3250 H     1203  JRZ1203     0.0245
     47 H173      -33.9580    6.1330    5.7140 H     1203  JRZ1203     0.0245
@<TRIPOS>BOND
     1     1     4    1
     2     1     8    1
     3     1    21    1
     4     1    22    1
     5     2    16    1
     6     2    18    1
     7     2    23    1
     8     3    13    1
     9     3    14    1
    10     4     6    1
    11     4    24    1
    12     4    25    1
    13     5    15    1
    14     5    26    1
    15     6     7    1
    16     6    27    1
    17     6    28    1
    18     7     8   ar
    19     7    13   ar
    20     8     9   ar
    21     9    10    1
    22     9    11   ar
    23    10    29    1
    24    10    30    1
    25    10    31    1
    26    11    12   ar
    27    11    32    1
    28    12    13   ar
    29    12    33    1
    30    14    15    1
    31    14    34    1
    32    14    35    1
    33    15    16    1
    34    15    36    1
    35    16    17    1
    36    16    37    1
    37    17    38    1
    38    17    39    1
    39    17    40    1
    40    18    19    1
    41    18    20    1
    42    18    41    1
    43    19    42    1
    44    19    43    1
    45    19    44    1
    46    20    45    1
    47    20    46    1
    48    20    47    1
