@<TRIPOS>MOLECULE
C:\Users\porto\OneDrive\projekt\beta2\ligandy\L_3ny9.pdb L_3ny9.pdb 1
 49 50 0 0 0
SMALL
GASTEIGER

@<TRIPOS>ATOM
      1  C1       -26.2570    7.2100    7.7300 C.2   1203  JSZ1203     0.3751
      2  N1       -34.2260    8.6830    7.0180 N.3   1203  JSZ1203    -0.3112
      3  O1       -25.2830    6.8410    7.0960 O.2   1203  JSZ1203    -0.2415
      4  C2       -26.3630    5.0470    9.0390 C.3   1203  JSZ1203     0.0901
      5  O2       -26.7910    6.3970    8.8180 O.3   1203  JSZ1203    -0.4593
      6  C3       -27.5720    4.1680    9.2850 C.3   1203  JSZ1203    -0.0306
      7  O3       -26.2050    9.5840    6.9770 O.2   1203  JSZ1203    -0.4478
      8  C4       -26.9100    8.4930    7.3800 C.ar  1203  JSZ1203     0.2156
      9  O4       -30.7810   10.8260    6.9140 O.3   1203  JSZ1203    -0.4886
     10  C5       -28.3480    8.8510    7.3720 C.ar  1203  JSZ1203     0.0131
     11  O5       -34.0130   11.3940    7.8380 O.3   1203  JSZ1203    -0.3872
     12  C6       -29.5940    8.0760    7.7110 C.3   1203  JSZ1203    -0.0352
     13  C7       -28.4410   10.1880    6.9520 C.ar  1203  JSZ1203     0.0655
     14  C8       -27.1040   10.5410    6.7410 C.ar  1203  JSZ1203     0.1398
     15  C9       -26.7650   11.8190    6.3090 C.ar  1203  JSZ1203    -0.0185
     16  C10      -27.7760   12.7560    6.0900 C.ar  1203  JSZ1203    -0.0548
     17  C11      -29.1100   12.4140    6.2980 C.ar  1203  JSZ1203    -0.0191
     18  C12      -29.4530   11.1330    6.7350 C.ar  1203  JSZ1203     0.1316
     19  C13      -31.5960   11.2890    7.9980 C.3   1203  JSZ1203     0.1166
     20  C14      -32.9100   10.5030    8.0280 C.3   1203  JSZ1203     0.1015
     21  C15      -32.9640    9.4390    6.9350 C.3   1203  JSZ1203     0.0254
     22  C16      -33.9660    7.2240    7.1220 C.3   1203  JSZ1203     0.0021
     23  C17      -35.2890    6.4750    7.2540 C.3   1203  JSZ1203    -0.0499
     24  C18      -33.1860    6.7090    5.9160 C.3   1203  JSZ1203    -0.0499
     25  HN1      -34.7430    8.9790    7.8340 H     1203  JSZ1203     0.1223
     26  H21      -25.7060    5.0120    9.9080 H     1203  JSZ1203     0.0695
     27  H22      -25.8260    4.6880    8.1610 H     1203  JSZ1203     0.0695
     28  H31      -27.2470    3.1410    9.4530 H     1203  JSZ1203     0.0262
     29  H32      -28.1100    4.5270   10.1620 H     1203  JSZ1203     0.0262
     30  H33      -28.2300    4.2030    8.4170 H     1203  JSZ1203     0.0262
     31  HO5      -34.8340   10.8970    7.8580 H     1203  JSZ1203     0.2100
     32  H61      -30.4680    8.7130    7.5720 H     1203  JSZ1203     0.0279
     33  H62      -29.6710    7.2070    7.0570 H     1203  JSZ1203     0.0279
     34  H63      -29.5460    7.7460    8.7490 H     1203  JSZ1203     0.0279
     35  H9       -25.7290   12.0770    6.1470 H     1203  JSZ1203     0.0654
     36  H10      -27.5260   13.7530    5.7570 H     1203  JSZ1203     0.0620
     37  H11      -29.8880   13.1420    6.1210 H     1203  JSZ1203     0.0654
     38 H131      -31.8100   12.3490    7.8640 H     1203  JSZ1203     0.0723
     39 H132      -31.0650   11.1450    8.9390 H     1203  JSZ1203     0.0723
     40  H14      -33.0100   10.0180    8.9990 H     1203  JSZ1203     0.0640
     41 H151      -32.8910    9.9180    5.9580 H     1203  JSZ1203     0.0450
     42 H152      -32.1230    8.7550    7.0520 H     1203  JSZ1203     0.0450
     43  H16      -33.3750    7.0420    8.0190 H     1203  JSZ1203     0.0455
     44 H171      -35.0950    5.4050    7.3300 H     1203  JSZ1203     0.0245
     45 H172      -35.8110    6.8140    8.1490 H     1203  JSZ1203     0.0245
     46 H173      -35.9070    6.6700    6.3780 H     1203  JSZ1203     0.0245
     47 H181      -33.0130    5.6380    6.0250 H     1203  JSZ1203     0.0245
     48 H182      -33.7580    6.8940    5.0070 H     1203  JSZ1203     0.0245
     49 H183      -32.2290    7.2270    5.8540 H     1203  JSZ1203     0.0245
@<TRIPOS>BOND
     1     1     3    2
     2     1     5    1
     3     1     8    1
     4     2    21    1
     5     2    22    1
     6     2    25    1
     7     4     5    1
     8     4     6    1
     9     4    26    1
    10     4    27    1
    11     6    28    1
    12     6    29    1
    13     6    30    1
    14     7     8   ar
    15     7    14   ar
    16     8    10   ar
    17     9    18    1
    18     9    19    1
    19    10    12    1
    20    10    13   ar
    21    11    20    1
    22    11    31    1
    23    12    32    1
    24    12    33    1
    25    12    34    1
    26    13    14   ar
    27    13    18   ar
    28    14    15   ar
    29    15    16   ar
    30    15    35    1
    31    16    17   ar
    32    16    36    1
    33    17    18   ar
    34    17    37    1
    35    19    20    1
    36    19    38    1
    37    19    39    1
    38    20    21    1
    39    20    40    1
    40    21    41    1
    41    21    42    1
    42    22    23    1
    43    22    24    1
    44    22    43    1
    45    23    44    1
    46    23    45    1
    47    23    46    1
    48    24    47    1
    49    24    48    1
    50    24    49    1
