@<TRIPOS>MOLECULE
C:\Users\porto\OneDrive\projekt\beta2\ligandy\L_3nya.pdb L_3nya.pdb 1
 41 41 0 0 0
SMALL
GASTEIGER

@<TRIPOS>ATOM
      1  C1       -34.0090    6.9980    5.4180 C.3   1203  JTZ1203    -0.0499
      2  N1       -34.1880    8.3470    7.4870 N.3   1203  JTZ1203    -0.3112
      3  O1       -34.1860   11.0580    7.7510 O.3   1203  JTZ1203    -0.3872
      4  C2       -34.1490    6.9740    6.9410 C.3   1203  JTZ1203     0.0021
      5  O2       -30.5610   10.6210    7.6760 O.3   1203  JTZ1203    -0.4891
      6  C3       -35.4170    6.2400    7.3640 C.3   1203  JTZ1203    -0.0499
      7  C4       -32.9320    9.0560    7.2080 C.3   1203  JTZ1203     0.0254
      8  C5       -32.9290   10.3960    7.9240 C.3   1203  JTZ1203     0.1015
      9  C6       -31.8060   11.2280    7.3360 C.3   1203  JTZ1203     0.1166
     10  C7       -29.3760   11.0160    7.1060 C.ar  1203  JTZ1203     0.1241
     11  C8       -29.3420   12.1080    6.2410 C.ar  1203  JTZ1203    -0.0197
     12  C9       -28.1440   12.5060    5.6630 C.ar  1203  JTZ1203    -0.0583
     13  C10      -26.9710   11.8200    5.9470 C.ar  1203  JTZ1203    -0.0613
     14  C11      -26.9960   10.7370    6.8090 C.ar  1203  JTZ1203    -0.0548
     15  C12      -28.1960   10.3330    7.3910 C.ar  1203  JTZ1203    -0.0020
     16  C13      -28.1910    9.1500    8.3300 C.3   1203  JTZ1203    -0.0063
     17  C14      -27.4970    7.9950    7.6560 C.2   1203  JTZ1203    -0.0867
     18  C15      -26.2430    7.7080    7.9450 C.2   1203  JTZ1203    -0.1023
     19  H11      -33.9820    5.9760    5.0390 H     1203  JTZ1203     0.0245
     20  H12      -34.8580    7.5250    4.9830 H     1203  JTZ1203     0.0245
     21  H13      -33.0860    7.5100    5.1450 H     1203  JTZ1203     0.0245
     22  HN1      -34.9500    8.8570    7.0630 H     1203  JTZ1203     0.1223
     23  HO1      -34.1690   11.9020    8.2080 H     1203  JTZ1203     0.2100
     24  H2       -33.2880    6.4550    7.3630 H     1203  JTZ1203     0.0455
     25  H31      -35.4910    6.2380    8.4510 H     1203  JTZ1203     0.0245
     26  H32      -36.2870    6.7440    6.9420 H     1203  JTZ1203     0.0245
     27  H33      -35.3810    5.2130    7.0010 H     1203  JTZ1203     0.0245
     28  H41      -32.8370    9.2180    6.1340 H     1203  JTZ1203     0.0450
     29  H42      -32.0910    8.4560    7.5570 H     1203  JTZ1203     0.0450
     30  H5       -32.7450   10.2390    8.9870 H     1203  JTZ1203     0.0640
     31  H61      -31.9090   11.2620    6.2510 H     1203  JTZ1203     0.0723
     32  H62      -31.8440   12.2350    7.7510 H     1203  JTZ1203     0.0723
     33  H8       -30.2500   12.6490    6.0180 H     1203  JTZ1203     0.0654
     34  H9       -28.1230   13.3510    4.9910 H     1203  JTZ1203     0.0619
     35  H10      -26.0410   12.1310    5.4960 H     1203  JTZ1203     0.0618
     36  H11      -26.0840   10.2030    7.0320 H     1203  JTZ1203     0.0622
     37 H131      -29.2180    8.8690    8.5660 H     1203  JTZ1203     0.0357
     38 H132      -27.6560    9.4130    9.2420 H     1203  JTZ1203     0.0357
     39  H14      -28.0340    7.4000    6.9320 H     1203  JTZ1203     0.0570
     40 H151      -25.7530    6.8780    7.4570 H     1203  JTZ1203     0.0532
     41 H152      -25.7060    8.3030    8.6690 H     1203  JTZ1203     0.0532
@<TRIPOS>BOND
     1     1     4    1
     2     1    19    1
     3     1    20    1
     4     1    21    1
     5     2     4    1
     6     2     7    1
     7     2    22    1
     8     3     8    1
     9     3    23    1
    10     4     6    1
    11     4    24    1
    12     5     9    1
    13     5    10    1
    14     6    25    1
    15     6    26    1
    16     6    27    1
    17     7     8    1
    18     7    28    1
    19     7    29    1
    20     8     9    1
    21     8    30    1
    22     9    31    1
    23     9    32    1
    24    10    11   ar
    25    10    15   ar
    26    11    12   ar
    27    11    33    1
    28    12    13   ar
    29    12    34    1
    30    13    14   ar
    31    13    35    1
    32    14    15   ar
    33    14    36    1
    34    15    16    1
    35    16    17    1
    36    16    37    1
    37    16    38    1
    38    17    18    2
    39    17    39    1
    40    18    40    1
    41    18    41    1
