@<TRIPOS>MOLECULE
C:\Users\porto\OneDrive\projekt\beta2\ligandy\L_4lde.pdb L_4lde.pdb 1
 53 55 0 0 0
SMALL
GASTEIGER

@<TRIPOS>ATOM
      1  CAA      -35.4620    4.0310    5.9080 C.3   1401  P0G1401    -0.0395
      2  CAB      -33.3630    6.7970    5.4280 C.3   1401  P0G1401    -0.0467
      3  CAC      -32.5420    6.2020    7.7080 C.3   1401  P0G1401    -0.0467
      4  CAG      -35.4570    3.0000    9.5310 C.ar  1401  P0G1401    -0.0615
      5  CAH      -35.2490    4.2090   10.1850 C.ar  1401  P0G1401    -0.0615
      6  CAI      -35.5260    2.9530    8.1450 C.ar  1401  P0G1401    -0.0586
      7  CAJ      -35.1190    5.3730    9.4500 C.ar  1401  P0G1401    -0.0583
      8  CAK      -29.2250   12.4240    5.8670 C.ar  1401  P0G1401    -0.0178
      9  CAL      -30.3840   11.8860    6.4200 C.ar  1401  P0G1401    -0.0490
     10  CAM      -27.8810    8.1170    7.8560 C.3   1401  P0G1401     0.1656
     11  CAN      -32.2800    9.0620    6.5220 C.3   1401  P0G1401     0.0267
     12  CAO      -35.0240    6.6250    7.2900 C.3   1401  P0G1401    -0.0096
     13  CAS      -26.7050    8.6210    7.0410 C.2   1401  P0G1401     0.2550
     14  CAT      -35.3860    4.1200    7.4090 C.ar  1401  P0G1401    -0.0472
     15  CAU      -28.0650   11.6620    5.7950 C.ar  1401  P0G1401     0.1416
     16  CAV      -35.1690    5.3300    8.0590 C.ar  1401  P0G1401    -0.0427
     17  CAW      -30.3910   10.5820    6.9030 C.ar  1401  P0G1401     0.0258
     18  CAX      -28.0640   10.3700    6.2810 C.ar  1401  P0G1401     0.1180
     19  CAY      -29.2150    9.8310    6.8320 C.ar  1401  P0G1401     0.1515
     20  CAZ      -31.6410   10.0360    7.4970 C.3   1401  P0G1401     0.0960
     21  NAP      -33.3840    8.3990    7.1830 N.3   1401  P0G1401    -0.3080
     22  NAQ      -26.9370    9.6250    6.2010 N.am  1401  P0G1401    -0.2769
     23  OAD      -25.5990    8.1170    7.1620 O.2   1401  P0G1401    -0.2717
     24  OAE      -26.9250   12.1800    5.2550 O.3   1401  P0G1401    -0.5048
     25  OAF      -32.6030   11.0680    7.7700 O.3   1401  P0G1401    -0.3858
     26  OAR      -29.1220    8.5410    7.2810 O.3   1401  P0G1401    -0.4804
     27  CBA      -33.5850    6.9890    6.9230 C.3   1401  P0G1401     0.0176
     28 HAA1      -35.3350    5.0240    5.4780 H     1401  P0G1401     0.0278
     29 HAA2      -34.6740    3.3730    5.5420 H     1401  P0G1401     0.0278
     30 HAA3      -36.4330    3.6310    5.6160 H     1401  P0G1401     0.0278
     31 HAB1      -34.1120    7.3620    4.8730 H     1401  P0G1401     0.0247
     32 HAB2      -32.3680    7.1520    5.1590 H     1401  P0G1401     0.0247
     33 HAB3      -33.4500    5.7390    5.1800 H     1401  P0G1401     0.0247
     34 HAC1      -32.7070    6.3440    8.7760 H     1401  P0G1401     0.0247
     35 HAC2      -32.6270    5.1430    7.4650 H     1401  P0G1401     0.0247
     36 HAC3      -31.5450    6.5560    7.4450 H     1401  P0G1401     0.0247
     37  HAG      -35.5660    2.0890   10.1010 H     1401  P0G1401     0.0618
     38  HAH      -35.1900    4.2370   11.2630 H     1401  P0G1401     0.0618
     39  HAI      -35.6880    2.0100    7.6440 H     1401  P0G1401     0.0620
     40  HAJ      -34.9780    6.3170    9.9550 H     1401  P0G1401     0.0620
     41  HAK      -29.2250   13.4370    5.4920 H     1401  P0G1401     0.0655
     42  HAL      -31.2830   12.4820    6.4750 H     1401  P0G1401     0.0623
     43 HAM1      -27.8050    8.4960    8.8750 H     1401  P0G1401     0.0795
     44 HAM2      -27.8540    7.0280    7.8980 H     1401  P0G1401     0.0795
     45 HAN1      -31.5430    8.3200    6.2140 H     1401  P0G1401     0.0453
     46 HAN2      -32.6510    9.6080    5.6540 H     1401  P0G1401     0.0453
     47 HAO1      -35.4660    7.4380    7.8660 H     1401  P0G1401     0.0331
     48 HAO2      -35.6260    6.5760    6.3830 H     1401  P0G1401     0.0331
     49  HAZ      -31.4010    9.5130    8.4230 H     1401  P0G1401     0.0657
     50 HNAP      -33.2670    8.4670    8.1840 H     1401  P0G1401     0.1225
     51 HNAQ      -26.2640    9.8470    5.4810 H     1401  P0G1401     0.1551
     52 HOAE      -26.2280   11.5210    5.2860 H     1401  P0G1401     0.2922
     53 HOAF      -32.2270   11.7020    8.3860 H     1401  P0G1401     0.2103
@<TRIPOS>BOND
     1     1    14    1
     2     1    28    1
     3     1    29    1
     4     1    30    1
     5     2    27    1
     6     2    31    1
     7     2    32    1
     8     2    33    1
     9     3    27    1
    10     3    34    1
    11     3    35    1
    12     3    36    1
    13     4     5   ar
    14     4     6   ar
    15     4    37    1
    16     5     7   ar
    17     5    38    1
    18     6    14   ar
    19     6    39    1
    20     7    16   ar
    21     7    40    1
    22     8     9   ar
    23     8    15   ar
    24     8    41    1
    25     9    17   ar
    26     9    42    1
    27    10    13    1
    28    10    26    1
    29    10    43    1
    30    10    44    1
    31    11    20    1
    32    11    21    1
    33    11    45    1
    34    11    46    1
    35    12    16    1
    36    12    27    1
    37    12    47    1
    38    12    48    1
    39    13    22   am
    40    13    23    2
    41    14    16   ar
    42    15    18   ar
    43    15    24    1
    44    17    19   ar
    45    17    20    1
    46    18    19   ar
    47    18    22    1
    48    19    26    1
    49    20    25    1
    50    20    49    1
    51    21    27    1
    52    21    50    1
    53    22    51    1
    54    24    52    1
    55    25    53    1
