@<TRIPOS>MOLECULE
C:\Users\porto\OneDrive\projekt\beta2\ligandy\L_4ldl.pdb L_4ldl.pdb 1
 46 47 0 0 0
SMALL
GASTEIGER

@<TRIPOS>ATOM
      1  CAA      -33.3900    5.8780    5.7350 C.3   1401  XQC1401    -0.0467
      2  CAB      -33.1860    6.0660    7.2350 C.3   1401  XQC1401     0.0176
      3  CAC      -31.9270    5.3400    7.6930 C.3   1401  XQC1401    -0.0467
      4  CAD      -34.4100    5.6070    8.0310 C.3   1401  XQC1401    -0.0098
      5  CAE      -34.4340    4.1150    8.3020 C.ar  1401  XQC1401    -0.0454
      6  CAF      -34.7170    3.2040    7.2870 C.ar  1401  XQC1401    -0.0551
      7  CAG      -34.7430    1.8410    7.5540 C.ar  1401  XQC1401    -0.0199
      8  CAH      -34.4990    1.3800    8.8440 C.ar  1401  XQC1401     0.1169
      9  CAJ      -34.2270    2.2860    9.8620 C.ar  1401  XQC1401    -0.0199
     10  CAK      -34.2020    3.6490    9.5930 C.ar  1401  XQC1401    -0.0551
     11  CAM      -31.8650    8.1360    6.8170 C.3   1401  XQC1401     0.0266
     12  CAN      -31.5470    9.4650    7.4910 C.3   1401  XQC1401     0.0927
     13  CAP      -30.4020   10.0820    6.7830 C.ar  1401  XQC1401    -0.0143
     14  CAQ      -30.4030   11.4350    6.4650 C.ar  1401  XQC1401    -0.0524
     15  CAR      -29.3140   11.9890    5.8000 C.ar  1401  XQC1401    -0.0162
     16  CAS      -28.2240   11.1950    5.4600 C.ar  1401  XQC1401     0.1582
     17  CAU      -28.2220    9.8500    5.7830 C.ar  1401  XQC1401     0.1586
     18  CAW      -29.3090    9.2930    6.4450 C.ar  1401  XQC1401    -0.0109
     19  NAL      -32.9830    7.4810    7.4690 N.3   1401  XQC1401    -0.3080
     20  OAI      -34.5260    0.0440    9.1080 O.3   1401  XQC1401    -0.5068
     21  OAO      -32.7000   10.3140    7.4680 O.3   1401  XQC1401    -0.3859
     22  OAT      -27.1560   11.7390    4.8100 O.3   1401  XQC1401    -0.5033
     23  OAV      -27.1560    9.0700    5.4520 O.3   1401  XQC1401    -0.5033
     24 HAA1      -34.2930    6.4020    5.4220 H     1401  XQC1401     0.0247
     25 HAA2      -32.5320    6.2810    5.1980 H     1401  XQC1401     0.0247
     26 HAA3      -33.4910    4.8160    5.5120 H     1401  XQC1401     0.0247
     27 HAC1      -31.7940    5.4830    8.7650 H     1401  XQC1401     0.0247
     28 HAC2      -32.0220    4.2760    7.4780 H     1401  XQC1401     0.0247
     29 HAC3      -31.0630    5.7410    7.1640 H     1401  XQC1401     0.0247
     30 HAD1      -35.3160    5.8920    7.4970 H     1401  XQC1401     0.0331
     31 HAD2      -34.4500    6.1470    8.9770 H     1401  XQC1401     0.0331
     32  HAF      -34.9180    3.5560    6.2860 H     1401  XQC1401     0.0621
     33  HAG      -34.9530    1.1390    6.7600 H     1401  XQC1401     0.0654
     34  HAJ      -34.0350    1.9310   10.8640 H     1401  XQC1401     0.0654
     35  HAK      -34.0010    4.3480   10.3910 H     1401  XQC1401     0.0621
     36 HAM1      -30.9890    7.4880    6.8600 H     1401  XQC1401     0.0453
     37 HAM2      -32.1070    8.3100    5.7690 H     1401  XQC1401     0.0453
     38  HAN      -31.2650    9.2790    8.5270 H     1401  XQC1401     0.0656
     39  HAQ      -31.2470   12.0520    6.7340 H     1401  XQC1401     0.0622
     40  HAR      -29.3130   13.0390    5.5460 H     1401  XQC1401     0.0655
     41  HAW      -29.3030    8.2430    6.6970 H     1401  XQC1401     0.0659
     42 HNAL      -33.7970    7.9940    7.1620 H     1401  XQC1401     0.1225
     43 HOAI      -34.3390   -0.1030   10.0380 H     1401  XQC1401     0.2921
     44 HOAO      -32.4920   11.1490    7.8940 H     1401  XQC1401     0.2103
     45 HOAT      -26.4970   11.0590    4.6520 H     1401  XQC1401     0.2923
     46 HOAV      -27.3140    8.1700    5.7460 H     1401  XQC1401     0.2923
@<TRIPOS>BOND
     1     1     2    1
     2     1    24    1
     3     1    25    1
     4     1    26    1
     5     2     3    1
     6     2     4    1
     7     2    19    1
     8     3    27    1
     9     3    28    1
    10     3    29    1
    11     4     5    1
    12     4    30    1
    13     4    31    1
    14     5     6   ar
    15     5    10   ar
    16     6     7   ar
    17     6    32    1
    18     7     8   ar
    19     7    33    1
    20     8     9   ar
    21     8    20    1
    22     9    10   ar
    23     9    34    1
    24    10    35    1
    25    11    12    1
    26    11    19    1
    27    11    36    1
    28    11    37    1
    29    12    13    1
    30    12    21    1
    31    12    38    1
    32    13    14   ar
    33    13    18   ar
    34    14    15   ar
    35    14    39    1
    36    15    16   ar
    37    15    40    1
    38    16    17   ar
    39    16    22    1
    40    17    18   ar
    41    17    23    1
    42    18    41    1
    43    19    42    1
    44    20    43    1
    45    21    44    1
    46    22    45    1
    47    23    46    1
