@<TRIPOS>MOLECULE
C:\Users\porto\OneDrive\projekt\beta2\ligandy\L_4ldo.pdb L_4ldo.pdb 1
 26 26 0 0 0
SMALL
GASTEIGER

@<TRIPOS>ATOM
      1  C1       -30.5920   10.2720    6.9760 C.ar  1402  ALE1402    -0.0143
      2  N1       -33.3790    7.9190    7.5060 N.3   1402  ALE1402    -0.3162
      3  O1       -27.0430    9.5110    6.4710 O.3   1402  ALE1402    -0.5033
      4  C2       -29.3810    9.5910    7.0610 C.ar  1402  ALE1402    -0.0109
      5  O2       -27.1980   11.7610    5.1460 O.3   1402  ALE1402    -0.5033
      6  C3       -28.2590   10.1200    6.4330 C.ar  1402  ALE1402     0.1586
      7  O3       -32.7710   10.7190    7.6210 O.3   1402  ALE1402    -0.3859
      8  C4       -28.3420   11.3130    5.7310 C.ar  1402  ALE1402     0.1582
      9  C5       -29.5470   11.9990    5.6430 C.ar  1402  ALE1402    -0.0162
     10  C6       -30.6720   11.4700    6.2700 C.ar  1402  ALE1402    -0.0524
     11  C7       -31.7200    9.7490    7.6020 C.3   1402  ALE1402     0.0927
     12  C8       -32.1900    8.4950    6.8620 C.3   1402  ALE1402     0.0258
     13  C9       -33.8010    6.7160    6.7760 C.3   1402  ALE1402    -0.0157
     14  HN1      -33.1590    7.6720    8.4600 H     1402  ALE1402     0.1217
     15  HO1      -26.4070   10.0350    5.9790 H     1402  ALE1402     0.2923
     16  H2       -29.3210    8.6630    7.6100 H     1402  ALE1402     0.0659
     17  HO2      -27.3730   12.5880    4.6910 H     1402  ALE1402     0.2923
     18  HO3      -33.5430   10.3470    8.0550 H     1402  ALE1402     0.2103
     19  H5       -29.6010   12.9280    5.0940 H     1402  ALE1402     0.0655
     20  H6       -31.6120   11.9970    6.2050 H     1402  ALE1402     0.0622
     21  H7       -31.4650    9.4820    8.6270 H     1402  ALE1402     0.0656
     22  H81      -32.4250    8.7500    5.8290 H     1402  ALE1402     0.0453
     23  H82      -31.3880    7.7570    6.8540 H     1402  ALE1402     0.0453
     24  H91      -34.6830    6.2900    7.2550 H     1402  ALE1402     0.0388
     25  H92      -34.0400    6.9810    5.7460 H     1402  ALE1402     0.0388
     26  H93      -32.9940    5.9830    6.7850 H     1402  ALE1402     0.0388
@<TRIPOS>BOND
     1     1     4   ar
     2     1    10   ar
     3     1    11    1
     4     2    12    1
     5     2    13    1
     6     2    14    1
     7     3     6    1
     8     3    15    1
     9     4     6   ar
    10     4    16    1
    11     5     8    1
    12     5    17    1
    13     6     8   ar
    14     7    11    1
    15     7    18    1
    16     8     9   ar
    17     9    10   ar
    18     9    19    1
    19    10    20    1
    20    11    12    1
    21    11    21    1
    22    12    22    1
    23    12    23    1
    24    13    24    1
    25    13    25    1
    26    13    26    1
