@<TRIPOS>MOLECULE
C:\Users\porto\OneDrive\projekt\beta2\ligandy\L_4qkx.pdb L_4qkx.pdb 1
 51 52 0 0 0
SMALL
GASTEIGER

@<TRIPOS>ATOM
      1  CAA      -38.4020    6.6320    9.3770 C.3   1403  35V1403     0.0790
      2  CAF      -29.5160   12.0750    5.0910 C.ar  1403  35V1403    -0.0162
      3  CAG      -34.9040    3.8360    7.3560 C.ar  1403  35V1403    -0.0548
      4  CAH      -30.6470   11.5800    5.7280 C.ar  1403  35V1403    -0.0524
      5  CAI      -35.9900    2.9890    7.5640 C.ar  1403  35V1403    -0.0160
      6  CAJ      -29.4110    9.6920    6.5890 C.ar  1403  35V1403    -0.0109
      7  CAK      -36.1620    5.6580    8.3130 C.ar  1403  35V1403    -0.0131
      8  CAL      -39.3660    0.7780    7.4470 C.3   1403  35V1403     0.0249
      9  CAM      -34.5560    7.4540    7.2440 C.3   1403  35V1403    -0.0000
     10  CAN      -38.0410    1.3800    7.9320 C.3   1403  35V1403     0.0985
     11  CAO      -33.9420    6.0870    7.5810 C.3   1403  35V1403    -0.0150
     12  CAP      -32.3890    8.7060    6.4410 C.3   1403  35V1403     0.0261
     13  CAT      -28.3330   11.3640    5.2110 C.ar  1403  35V1403     0.1582
     14  CAU      -28.2800   10.1870    5.9500 C.ar  1403  35V1403     0.1586
     15  CAV      -34.9950    5.1790    7.7250 C.ar  1403  35V1403    -0.0425
     16  CAW      -30.6000   10.3960    6.4580 C.ar  1403  35V1403    -0.0143
     17  CAX      -37.1510    3.4830    8.1420 C.ar  1403  35V1403     0.1619
     18  CAY      -37.2350    4.8150    8.5250 C.ar  1403  35V1403     0.1618
     19  CAZ      -31.7580    9.9510    7.0850 C.3   1403  35V1403     0.0927
     20  NAQ      -33.5860    8.5580    7.2680 N.3   1403  35V1403    -0.3129
     21  OAB      -27.1810   11.7790    4.6200 O.3   1403  35V1403    -0.5033
     22  OAC      -27.0770    9.5540    6.0130 O.3   1403  35V1403    -0.5033
     23  OAD      -32.7490   10.9840    7.2050 O.3   1403  35V1403    -0.3859
     24  OAR      -38.4100    5.2330    9.0660 O.3   1403  35V1403    -0.4914
     25  OAS      -38.2570    2.7240    8.3710 O.3   1403  35V1403    -0.4875
     26  SAE      -40.6350    0.7730    8.7620 S.3   1403  35V1403    -0.1749
     27 HAA1      -39.3630    6.9150    9.8060 H     1403  35V1403     0.0660
     28 HAA2      -37.6090    6.8410   10.0950 H     1403  35V1403     0.0660
     29 HAA3      -38.2280    7.2060    8.4670 H     1403  35V1403     0.0660
     30  HAF      -29.5740   12.9910    4.5210 H     1403  35V1403     0.0655
     31  HAG      -33.9980    3.4530    6.9110 H     1403  35V1403     0.0621
     32  HAH      -31.5820   12.1160    5.6610 H     1403  35V1403     0.0622
     33  HAI      -35.9280    1.9500    7.2760 H     1403  35V1403     0.0655
     34  HAJ      -29.3490    8.7830    7.1680 H     1403  35V1403     0.0659
     35  HAK      -36.2250    6.6960    8.6040 H     1403  35V1403     0.0658
     36 HAL1      -39.7320    1.3470    6.5920 H     1403  35V1403     0.0407
     37 HAL2      -39.1960   -0.2420    7.1030 H     1403  35V1403     0.0407
     38 HAM1      -35.3660    7.6690    7.9420 H     1403  35V1403     0.0427
     39 HAM2      -35.0260    7.4070    6.2620 H     1403  35V1403     0.0427
     40 HAN1      -37.3200    1.3760    7.1150 H     1403  35V1403     0.0705
     41 HAN2      -37.6530    0.7860    8.7590 H     1403  35V1403     0.0705
     42 HAO1      -33.3930    6.1580    8.5200 H     1403  35V1403     0.0325
     43 HAO2      -33.2970    5.7670    6.7630 H     1403  35V1403     0.0325
     44 HAP1      -32.6880    8.9460    5.4210 H     1403  35V1403     0.0453
     45 HAP2      -31.7350    7.8500    6.6050 H     1403  35V1403     0.0453
     46  HAZ      -31.4760    9.6690    8.0990 H     1403  35V1403     0.0656
     47 HNAQ      -34.0560    9.4250    7.0500 H     1403  35V1403     0.1220
     48 HOAB      -26.4770   11.1570    4.8180 H     1403  35V1403     0.2923
     49 HOAC      -26.4270   10.0500    5.5100 H     1403  35V1403     0.2923
     50 HOAD      -32.3550   11.7610    7.6070 H     1403  35V1403     0.2103
     51 HSAE      -41.7650    0.2400    8.2890 H     1403  35V1403     0.1017
@<TRIPOS>BOND
     1     1    24    1
     2     1    27    1
     3     1    28    1
     4     1    29    1
     5     2     4   ar
     6     2    13   ar
     7     2    30    1
     8     3     5   ar
     9     3    15   ar
    10     3    31    1
    11     4    16   ar
    12     4    32    1
    13     5    17   ar
    14     5    33    1
    15     6    14   ar
    16     6    16   ar
    17     6    34    1
    18     7    18   ar
    19     7    15   ar
    20     7    35    1
    21     8    26    1
    22     8    10    1
    23     8    36    1
    24     8    37    1
    25     9    11    1
    26     9    20    1
    27     9    38    1
    28     9    39    1
    29    10    25    1
    30    10    40    1
    31    10    41    1
    32    11    15    1
    33    11    42    1
    34    11    43    1
    35    12    20    1
    36    12    19    1
    37    12    44    1
    38    12    45    1
    39    13    21    1
    40    13    14   ar
    41    14    22    1
    42    16    19    1
    43    17    25    1
    44    17    18   ar
    45    18    24    1
    46    19    23    1
    47    19    46    1
    48    20    47    1
    49    21    48    1
    50    22    49    1
    51    23    50    1
    52    26    51    1
