@<TRIPOS>MOLECULE
C:\Users\porto\OneDrive\projekt\beta2\ligandy\L_6mxt.pdb L_6mxt.pdb 1
 67 68 0 0 0
SMALL
GASTEIGER

@<TRIPOS>ATOM
      1  CAD      -28.8810   -0.1350   14.1120 C.ar  1401  K5Y1401    -0.0617
      2  CAE      -28.8800    1.2490   13.9810 C.ar  1401  K5Y1401    -0.0615
      3  CAF      -29.1880   -0.9320   13.0170 C.ar  1401  K5Y1401    -0.0615
      4  CAG      -29.1830    1.8330   12.7540 C.ar  1401  K5Y1401    -0.0586
      5  CAH      -29.4920   -0.3490   11.7910 C.ar  1401  K5Y1401    -0.0586
      6  CAI      -28.9780   12.1050    5.2710 C.ar  1401  K5Y1401    -0.0195
      7  CAJ      -30.1720   11.7380    5.8790 C.ar  1401  K5Y1401    -0.0526
      8  CAK      -29.0760    9.8180    6.8490 C.ar  1401  K5Y1401    -0.0472
      9  CAL      -35.3480    5.3880    6.9650 C.3   1401  K5Y1401    -0.0518
     10  CAM      -34.9860    4.4410    8.1130 C.3   1401  K5Y1401    -0.0509
     11  CAN      -34.9890    6.8260    7.3440 C.3   1401  K5Y1401    -0.0404
     12  CAO      -35.6860    3.0950    7.9090 C.3   1401  K5Y1401    -0.0295
     13  CAP      -32.2620    1.6980   10.8930 C.3   1401  K5Y1401    -0.0292
     14  CAQ      -31.1800    1.1310    9.9680 C.3   1401  K5Y1401    -0.0470
     15  CAR      -26.7340    9.4190    6.4110 C.3   1401  K5Y1401     0.0727
     16  CAS      -33.5640    7.1590    6.8870 C.3   1401  K5Y1401    -0.0040
     17  CAT      -35.3630    2.1880    9.0940 C.3   1401  K5Y1401     0.0477
     18  CAU      -33.6440    1.2990   10.3780 C.3   1401  K5Y1401     0.0477
     19  CAV      -29.7970    1.6110   10.4300 C.3   1401  K5Y1401    -0.0276
     20  CAW      -31.9010    8.9150    6.6550 C.3   1401  K5Y1401     0.0261
     21  CAZ      -29.4910    1.0350   11.6580 C.ar  1401  K5Y1401    -0.0474
     22  NAX      -33.2220    8.5610    7.1930 N.3   1401  K5Y1401    -0.3132
     23  OAA      -26.5970    8.5340    5.2970 O.3   1401  K5Y1401    -0.3903
     24  OAB      -26.6560   11.6510    4.8800 O.3   1401  K5Y1401    -0.5064
     25  OAC      -32.4040   11.2320    7.0250 O.3   1401  K5Y1401    -0.3859
     26  OAY      -33.9450    2.0330    9.1910 O.3   1401  K5Y1401    -0.3798
     27  CBA      -27.8450   11.3280    5.4560 C.ar  1401  K5Y1401     0.1222
     28  CBB      -30.2190   10.5960    6.6690 C.ar  1401  K5Y1401    -0.0174
     29  CBC      -27.8810   10.1830    6.2410 C.ar  1401  K5Y1401     0.0195
     30  CBD      -31.4150   10.2330    7.2710 C.3   1401  K5Y1401     0.0926
     31  HAD      -28.6440   -0.5910   15.0620 H     1401  K5Y1401     0.0618
     32  HAE      -28.6440    1.8720   14.8310 H     1401  K5Y1401     0.0618
     33  HAF      -29.1910   -2.0070   13.1160 H     1401  K5Y1401     0.0618
     34  HAG      -29.1790    2.9080   12.6520 H     1401  K5Y1401     0.0620
     35  HAH      -29.7290   -0.9720   10.9410 H     1401  K5Y1401     0.0620
     36  HAI      -28.9300   12.9920    4.6560 H     1401  K5Y1401     0.0654
     37  HAJ      -31.0580   12.3390    5.7360 H     1401  K5Y1401     0.0622
     38  HAK      -29.1210    8.9300    7.4620 H     1401  K5Y1401     0.0626
     39 HAL1      -34.7970    5.1000    6.0700 H     1401  K5Y1401     0.0266
     40 HAL2      -36.4170    5.3220    6.7630 H     1401  K5Y1401     0.0266
     41 HAM1      -35.3070    4.8780    9.0590 H     1401  K5Y1401     0.0266
     42 HAM2      -33.9070    4.2900    8.1320 H     1401  K5Y1401     0.0266
     43 HAN1      -35.0610    6.9450    8.4250 H     1401  K5Y1401     0.0277
     44 HAN2      -35.6920    7.5120    6.8710 H     1401  K5Y1401     0.0277
     45 HAO1      -35.3250    2.6340    6.9900 H     1401  K5Y1401     0.0287
     46 HAO2      -36.7630    3.2510    7.8540 H     1401  K5Y1401     0.0287
     47 HAP1      -32.1220    1.3040   11.9000 H     1401  K5Y1401     0.0287
     48 HAP2      -32.1840    2.7850   10.9190 H     1401  K5Y1401     0.0287
     49 HAQ1      -31.3600    1.4700    8.9480 H     1401  K5Y1401     0.0269
     50 HAQ2      -31.2140    0.0420    9.9950 H     1401  K5Y1401     0.0269
     51 HAR1      -25.8650   10.0750    6.4620 H     1401  K5Y1401     0.0608
     52 HAR2      -26.8180    8.8370    7.3290 H     1401  K5Y1401     0.0608
     53 HAS1      -33.4790    6.9910    5.8130 H     1401  K5Y1401     0.0424
     54 HAS2      -32.8580    6.4960    7.3870 H     1401  K5Y1401     0.0424
     55 HAT1      -35.8250    1.2130    8.9410 H     1401  K5Y1401     0.0560
     56 HAT2      -35.7420    2.6390   10.0110 H     1401  K5Y1401     0.0560
     57 HAU1      -34.3920    1.5180   11.1400 H     1401  K5Y1401     0.0560
     58 HAU2      -33.6550    0.2320   10.1570 H     1401  K5Y1401     0.0560
     59 HAV1      -29.8040    2.6960   10.5300 H     1401  K5Y1401     0.0313
     60 HAV2      -29.0470    1.3190    9.6950 H     1401  K5Y1401     0.0313
     61 HAW1      -31.1900    8.1220    6.8870 H     1401  K5Y1401     0.0453
     62 HAW2      -31.9670    9.0230    5.5720 H     1401  K5Y1401     0.0453
     63 HNAX      -33.9120    9.1740    6.7820 H     1401  K5Y1401     0.1220
     64 HOAA      -25.8060    8.0010    5.4060 H     1401  K5Y1401     0.2098
     65 HOAB      -25.9950   10.9990    5.1220 H     1401  K5Y1401     0.2921
     66 HOAC      -32.1180   12.0660    7.4040 H     1401  K5Y1401     0.2103
     67  HBD      -31.2690   10.1100    8.3440 H     1401  K5Y1401     0.0656
@<TRIPOS>BOND
     1     1     3   ar
     2     1     2   ar
     3     1    31    1
     4     2     4   ar
     5     2    32    1
     6     3     5   ar
     7     3    33    1
     8     4    21   ar
     9     4    34    1
    10     5    21   ar
    11     5    35    1
    12     6    27   ar
    13     6     7   ar
    14     6    36    1
    15     7    28   ar
    16     7    37    1
    17     8    29   ar
    18     8    28   ar
    19     8    38    1
    20     9    11    1
    21     9    10    1
    22     9    39    1
    23     9    40    1
    24    10    12    1
    25    10    41    1
    26    10    42    1
    27    11    16    1
    28    11    43    1
    29    11    44    1
    30    12    17    1
    31    12    45    1
    32    12    46    1
    33    13    18    1
    34    13    14    1
    35    13    47    1
    36    13    48    1
    37    14    19    1
    38    14    49    1
    39    14    50    1
    40    15    23    1
    41    15    29    1
    42    15    51    1
    43    15    52    1
    44    16    22    1
    45    16    53    1
    46    16    54    1
    47    17    26    1
    48    17    55    1
    49    17    56    1
    50    18    26    1
    51    18    57    1
    52    18    58    1
    53    19    21    1
    54    19    59    1
    55    19    60    1
    56    20    30    1
    57    20    22    1
    58    20    61    1
    59    20    62    1
    60    22    63    1
    61    23    64    1
    62    24    27    1
    63    24    65    1
    64    25    30    1
    65    25    66    1
    66    27    29   ar
    67    28    30    1
    68    30    67    1
