#       Name:                C:\Users\porto\OneDrive\projekt\beta1\ligandy\L_2y02.pdb L_2y02.pdb 1
#       Creating user name   student
#       Creation time:       Mon Apr 08 15:57:30 2019


#       File generated by GOLD software.
#

@<TRIPOS>MOLECULE
C:\Users\porto\OneDrive\projekt\beta1\ligandy\L_2y02.pdb L_2y02.pdb 1|2y02|mol2|1|dock18
    60    62     1
SMALL
GASTEIGER


@<TRIPOS>ATOM
      1 C1         -23.4139  10.3545  22.8408 C.ar           1 <1>               -0.0471
      2 N1         -24.6850  12.8654  23.0440 N.am           1 <1>               -0.3192
      3 O1         -24.7815  12.5453  25.2633 O.2            1 <1>               -0.2679
      4 C2         -23.6575  11.0940  21.6891 C.ar           1 <1>                0.0078
      5 N2         -22.9406   7.6657  18.2889 N.3            1 <1>               -0.3104
      6 O2         -25.2029  14.3995  20.7732 O.3            1 <1>               -0.5047
      7 C3         -23.2726  10.6462  20.3104 C.ar           1 <1>               -0.0086
      8 O3         -22.9534   3.1171  12.1171 O.3            1 <1>               -0.4951
      9 C4         -23.5695  11.5011  19.2279 C.ar           1 <1>               -0.0519
     10 O4         -23.3126   8.2609  20.6926 O.3            1 <1>               -0.3859
     11 C5         -24.1981  12.7355  19.3683 C.ar           1 <1>               -0.0178
     12 C6         -24.5765  13.2136  20.6243 C.ar           1 <1>                0.1407
     13 C7         -24.3223  12.4165  21.8385 C.ar           1 <1>                0.0915
     14 C8         -23.8114  10.8777  24.0691 C.ar           1 <1>                0.0034
     15 C9         -24.4397  12.1219  24.1418 C.ar           1 <1>                0.2493
     16 C10        -22.5821   9.3378  20.0860 C.3            1 <1>                0.0932
     17 C11        -22.5241   9.0340  18.5907 C.3            1 <1>                0.0264
     18 C12        -23.1347   7.2230  16.9056 C.3            1 <1>                0.0089
     19 C13        -23.6056   8.3416  15.9702 C.3            1 <1>               -0.0494
     20 C14        -24.1141   6.0512  16.8413 C.3            1 <1>               -0.0125
     21 C15        -23.8099   5.2577  15.5921 C.ar           1 <1>               -0.0457
     22 C16        -24.0124   5.8452  14.3472 C.ar           1 <1>               -0.0551
     23 C17        -23.7230   5.1317  13.1851 C.ar           1 <1>               -0.0197
     24 C18        -23.2320   3.8260  13.2698 C.ar           1 <1>                0.1201
     25 C19        -23.0273   3.2383  14.5218 C.ar           1 <1>               -0.0197
     26 C20        -23.3198   3.9499  15.6812 C.ar           1 <1>               -0.0551
     27 C21        -22.9977   1.6844  12.1029 C.3            1 <1>                0.0788
     28 H1         -22.9257   9.3939  22.7726 H              1 <1>                0.0626
     29 HN1        -25.1424  13.7614  23.1319 H              1 <1>                0.1690
     30 HN2        -23.8062   7.5666  18.7992 H              1 <1>                0.1223
     31 HO2        -24.9913  14.9690  20.0303 H              1 <1>                0.2922
     32 H4         -23.3066  11.2090  18.2220 H              1 <1>                0.0622
     33 HO4        -24.0457   8.0108  20.1252 H              1 <1>                0.2103
     34 H5         -24.4007  13.3410  18.4968 H              1 <1>                0.0655
     35 H8         -23.6337  10.3199  24.9769 H              1 <1>                0.0672
     36 H10        -21.5726   9.3767  20.4956 H              1 <1>                0.0656
     37 H111       -23.1633   9.7344  18.0529 H              1 <1>                0.0453
     38 H112       -21.5088   9.1922  18.2276 H              1 <1>                0.0453
     39 H12        -22.1728   6.8683  16.5357 H              1 <1>                0.0461
     40 H131       -23.7291   7.9454  14.9624 H              1 <1>                0.0245
     41 H132       -24.5575   8.7353  16.3245 H              1 <1>                0.0245
     42 H133       -22.8648   9.1410  15.9568 H              1 <1>                0.0245
     43 H141       -25.1339   6.4331  16.7897 H              1 <1>                0.0328
     44 H142       -23.9783   5.4163  17.7165 H              1 <1>                0.0328
     45 H16        -24.3941   6.8536  14.2812 H              1 <1>                0.0621
     46 H17        -23.8784   5.5884  12.2188 H              1 <1>                0.0654
     47 H19        -22.6421   2.2316  14.5896 H              1 <1>                0.0654
     48 H20        -23.1692   3.4943  16.6489 H              1 <1>                0.0621
     49 H211       -22.7480   1.3222  11.1057 H              1 <1>                0.0660
     50 H212       -22.2792   1.2908  12.8221 H              1 <1>                0.0660
     51 H213       -23.9992   1.3485  12.3705 H              1 <1>                0.0660
     52 ****       -25.2354  13.4326  25.3458 LP             1 <1>                0.0000
     53 ****       -24.6019  11.9977  26.0806 LP             1 <1>                0.0000
     54 ****       -22.1705   7.0803  18.5425 LP             1 <1>                0.0000
     55 ****       -24.8994  14.8324  21.6220 LP             1 <1>                0.0000
     56 ****       -26.1913  14.2521  20.8092 LP             1 <1>                0.0000
     57 ****       -23.6064   3.4287  11.4268 LP             1 <1>                0.0000
     58 ****       -22.0277   3.3757  11.8410 LP             1 <1>                0.0000
     59 ****       -23.6645   8.5560  21.5809 LP             1 <1>                0.0000
     60 ****       -22.7058   7.4761  20.8184 LP             1 <1>                0.0000
@<TRIPOS>BOND
    1    1    4 ar    
    2    1   14 ar    
    3    1   28 1     
    4    2   13 ar    
    5    2   15 am    
    6    2   29 1     
    7    3   15 2     
    8    4    7 ar    
    9    4   13 ar    
   10    5   18 1     
   11    5   17 1     
   12    5   30 1     
   13    6   12 1     
   14    6   31 1     
   15    7   16 1     
   16    7    9 ar    
   17    8   27 1     
   18    8   24 1     
   19    9   11 ar    
   20    9   32 1     
   21   10   16 1     
   22   10   33 1     
   23   11   12 ar    
   24   11   34 1     
   25   12   13 ar    
   26   14   15 ar    
   27   14   35 1     
   28   16   17 1     
   29   16   36 1     
   30   17   37 1     
   31   17   38 1     
   32   18   19 1     
   33   18   20 1     
   34   18   39 1     
   35   19   40 1     
   36   19   41 1     
   37   19   42 1     
   38   20   21 1     
   39   20   43 1     
   40   20   44 1     
   41   21   22 ar    
   42   21   26 ar    
   43   22   23 ar    
   44   22   45 1     
   45   23   24 ar    
   46   23   46 1     
   47   24   25 ar    
   48   25   26 ar    
   49   25   47 1     
   50   26   48 1     
   51   27   49 1     
   52   27   50 1     
   53   27   51 1     
   54    3   52 1     
   55    3   53 1     
   56    5   54 1     
   57    6   55 1     
   58    6   56 1     
   59    8   57 1     
   60    8   58 1     
   61   10   59 1     
   62   10   60 1     
@<TRIPOS>SUBSTRUCTURE
      1 ****           1
@<TRIPOS>SET
LONE_PAIRS      STATIC     ATOMS    <user>   **** ""
9 52 53 54 55 56 57 58 59 60
DONOR_HYDROGENS      STATIC     ATOMS    <user>   **** ""
4 29 30 31 33
ATOM$BLUE        STATIC     ATOMS    COLORGROUP SYSTEM
9 52 53 54 55 56 57 58 59 60
ATOM$RED        STATIC     ATOMS    COLORGROUP SYSTEM
4 29 30 31 33
@<TRIPOS>COMMENT
> <Gold.Version>
5.5

> <Gold.Id.Protein>
unknown|bialko_beta1|pdb

> <Gold.Protein.ActiveResidues>
 ALA86   ASP87   VAL90   VAL94   VAL95   GLY98   ALA99   LEU101  VAL102  CYS114 
 GLU115  TRP117  THR118  SER119  LEU120  ASP121  VAL122  CYS124  VAL125  THR126 
 SER128  SER173  PHE174  ILE177  CYS199  ASP200  PHE201  TYR207  SER215  PHE299 
 TRP303  PHE306  PHE307  ASN310  PHE325  VAL326  ASN329  TRP330  GLY332  TYR333 
 SER336 

> <Gold.Score>
     Score     S(PLP)   S(hbond)     S(cho)   S(metal)  DE(clash)   DE(tors)     intcor
     81.01     -78.12       2.00       0.00       0.00       0.00       1.77       0.44

> <Gold.PLP.Fitness>
81.0097

> <Gold.PLP.PLP>
-78.1166

> <Gold.PLP.part.hbond>
-4.6641

> <Gold.PLP.part.metal>
0.0000

> <Gold.PLP.part.buried>
-8.1085

> <Gold.PLP.part.nonpolar>
-64.8133

> <Gold.PLP.part.repulsive>
0.2489

> <Gold.PLP.ligand.clash>
0.0000

> <Gold.PLP.ligand.torsion>
1.7735

> <Gold.PLP.Chemscore.Hbond>
2.0000

> <Gold.PLP.Chemscore.CHOScore>
0.0000

> <Gold.PLP.Chemscore.Metal>
0.0000

> <Gold.Chemscore.Hbonds>
donor molecule, donor type, donor heavy atom, donor atom, acceptor molecule, acceptor atom, score
      L1  H     5    30       P1  2066  1.00
      L1  H    10    33       P1  2066  1.00

> <Gold.PLP.Chemscore.Internal.Correction>
0.4400

