#       Name:                plp ligand
#       Creating user name   student
#       Creation time:       Mon Apr 08 15:54:42 2019


#       File generated by GOLD software.
#

@<TRIPOS>MOLECULE
plp ligand
    60    62     1
SMALL
GASTEIGER


@<TRIPOS>ATOM
      1 C1          -1.1874  -0.9145  -2.9807 NONPOLAR       1 <1>               -0.0471
      2 N1          -0.7544  -1.7875  -5.6287 DONOR          1 <1>               -0.3192
      3 O1          -1.6734   0.1375  -6.3267 ACCEPTOR       1 <1>               -0.2679
      4 C2          -0.6004  -2.1545  -3.2057 NONPOLAR       1 <1>                0.0078
      5 N2           0.5206  -1.1935   1.0943 DONACC         1 <1>               -0.3104
      6 O2           0.4186  -4.2635  -6.1497 DONACC         1 <1>               -0.5047
      7 C3          -0.1584  -3.0815  -2.1127 NONPOLAR       1 <1>               -0.0086
      8 O3          -1.1324   5.6765   3.6443 ACCEPTOR       1 <1>               -0.4951
      9 C4           0.4346  -4.3075  -2.4817 NONPOLAR       1 <1>               -0.0519
     10 O4           0.0016  -3.8225   0.1813 DONACC         1 <1>               -0.3859
     11 C5           0.6326  -4.7035  -3.8017 NONPOLAR       1 <1>               -0.0178
     12 C6           0.2496  -3.8845  -4.8657 NONPOLAR       1 <1>                0.1407
     13 C7          -0.3814  -2.5755  -4.6157 NONPOLAR       1 <1>                0.0915
     14 C8          -1.5504  -0.1365  -4.0777 NONPOLAR       1 <1>                0.0034
     15 C9          -1.3264  -0.5925  -5.3777 NONPOLAR       1 <1>                0.2493
     16 C10         -0.3274  -2.7155  -0.6717 NONPOLAR       1 <1>                0.0932
     17 C11          0.6356  -1.5875  -0.3087 NONPOLAR       1 <1>                0.0264
     18 C12          1.0026   0.1115   1.5543 NONPOLAR       1 <1>                0.0089
     19 C13          2.5036   0.3195   1.3263 NONPOLAR       1 <1>               -0.0494
     20 C14          0.6716   0.3245   3.0313 NONPOLAR       1 <1>               -0.0125
     21 C15          0.1776   1.7425   3.1983 NONPOLAR       1 <1>               -0.0457
     22 C16          1.0556   2.7185   3.6593 NONPOLAR       1 <1>               -0.0551
     23 C17          0.6196   4.0345   3.8053 NONPOLAR       1 <1>               -0.0197
     24 C18         -0.6994   4.3735   3.4913 NONPOLAR       1 <1>                0.1201
     25 C19         -1.5794   3.3915   3.0263 NONPOLAR       1 <1>               -0.0197
     26 C20         -1.1444   2.0775   2.8843 NONPOLAR       1 <1>               -0.0551
     27 C21         -1.3354   6.2385   4.9473 NONPOLAR       1 <1>                0.0788
     28 H1          -1.3544  -0.5715  -1.9707 0ÿ5i_          1 <1>                0.0626
     29 HN1         -0.6074  -2.0875  -6.5817 0ÿ5i_          1 <1>                0.1690
     30 HN2          1.0126  -1.9265   1.5843 0ÿ5i_          1 <1>                0.1223
     31 HO2          0.0966  -3.5725  -6.7327 0ÿ5i_          1 <1>                0.2922
     32 H4           0.7636  -4.9985  -1.7197 0ÿ5i_          1 <1>                0.0622
     33 HO4         -0.1134  -3.5655   1.0993 0ÿ5i_          1 <1>                0.2103
     34 H5           1.0896  -5.6585  -4.0167 0ÿ5i_          1 <1>                0.0655
     35 H8          -2.0094   0.8295  -3.9267 0ÿ5i_          1 <1>                0.0672
     36 H10         -1.3544  -2.3995  -0.4877 0ÿ5i_          1 <1>                0.0656
     37 H111         1.6586  -1.9035  -0.5137 0ÿ5i_          1 <1>                0.0453
     38 H112         0.4396  -0.7245  -0.9447 0ÿ5i_          1 <1>                0.0453
     39 H12          0.4746   0.8765   0.9853 0ÿ5i_          1 <1>                0.0461
     40 H131         2.7936   1.3055   1.6893 0ÿ5i_          1 <1>                0.0245
     41 H132         3.0626  -0.4445   1.8653 0ÿ5i_          1 <1>                0.0245
     42 H133         2.7236   0.2465   0.2613 0ÿ5i_          1 <1>                0.0245
     43 H141         1.5716   0.1805   3.6293 0ÿ5i_          1 <1>                0.0328
     44 H142        -0.1124  -0.3705   3.3313 0ÿ5i_          1 <1>                0.0328
     45 H16          2.0746   2.4565   3.9043 0ÿ5i_          1 <1>                0.0621
     46 H17          1.3016   4.7925   4.1613 0ÿ5i_          1 <1>                0.0654
     47 H19         -2.5974   3.6525   2.7773 0ÿ5i_          1 <1>                0.0654
     48 H20         -1.8254   1.3165   2.5323 0ÿ5i_          1 <1>                0.0621
     49 H211        -1.6754   7.2695   4.8503 0ÿ5i_          1 <1>                0.0660
     50 H212        -2.0874   5.6575   5.4813 0ÿ5i_          1 <1>                0.0660
     51 H213        -0.3984   6.2165   5.5033 0ÿ5i_          1 <1>                0.0660
     52 ****        -1.5272  -0.1641  -7.2689 0ÿ5i_          1 <1>                0.0000
     53 ****        -2.0980   1.0246  -6.1458 0ÿ5i_          1 <1>                0.0000
     54 ****        -0.4572  -1.0790   1.2697 0ÿ5i_          1 <1>                0.0000
     55 ****        -0.0922  -5.1066  -6.3183 0ÿ5i_          1 <1>                0.0000
     56 ****         1.3903  -4.4217  -6.3253 0ÿ5i_          1 <1>                0.0000
     57 ****        -0.4580   6.2558   3.1866 0ÿ5i_          1 <1>                0.0000
     58 ****        -2.0082   5.7431   3.1663 0ÿ5i_          1 <1>                0.0000
     59 ****         0.9525  -4.0908   0.0271 0ÿ5i_          1 <1>                0.0000
     60 ****        -0.6002  -4.5937  -0.0266 0ÿ5i_          1 <1>                0.0000
@<TRIPOS>BOND
    1    1    4 ar    
    2    1   14 ar    
    3    1   28 1     
    4    2   13 ar    
    5    2   15 am    
    6    2   29 1     
    7    3   15 2     
    8    4    7 ar    
    9    4   13 ar    
   10    5   18 1     
   11    5   17 1     
   12    5   30 1     
   13    6   12 1     
   14    6   31 1     
   15    7   16 1     
   16    7    9 ar    
   17    8   27 1     
   18    8   24 1     
   19    9   11 ar    
   20    9   32 1     
   21   10   16 1     
   22   10   33 1     
   23   11   12 ar    
   24   11   34 1     
   25   12   13 ar    
   26   14   15 ar    
   27   14   35 1     
   28   16   17 1     
   29   16   36 1     
   30   17   37 1     
   31   17   38 1     
   32   18   19 1     
   33   18   20 1     
   34   18   39 1     
   35   19   40 1     
   36   19   41 1     
   37   19   42 1     
   38   20   21 1     
   39   20   43 1     
   40   20   44 1     
   41   21   22 ar    
   42   21   26 ar    
   43   22   23 ar    
   44   22   45 1     
   45   23   24 ar    
   46   23   46 1     
   47   24   25 ar    
   48   25   26 ar    
   49   25   47 1     
   50   26   48 1     
   51   27   49 1     
   52   27   50 1     
   53   27   51 1     
   54    3   52 1     
   55    3   53 1     
   56    5   54 1     
   57    6   55 1     
   58    6   56 1     
   59    8   57 1     
   60    8   58 1     
   61   10   59 1     
   62   10   60 1     
@<TRIPOS>SUBSTRUCTURE
      1 ****           1
@<TRIPOS>SET
LONE_PAIRS      STATIC     ATOMS    <user>   **** ""
9 52 53 54 55 56 57 58 59 60
DONOR_HYDROGENS      STATIC     ATOMS    <user>   **** ""
4 29 30 31 33
ATOM$BLUE        STATIC     ATOMS    COLORGROUP SYSTEM
9 52 53 54 55 56 57 58 59 60
ATOM$RED        STATIC     ATOMS    COLORGROUP SYSTEM
4 29 30 31 33
