#       Name:                C:\Users\porto\OneDrive\projekt\beta1\ligandy\L_4amj.pdb L_4amj.pdb 1
#       Creating user name   mateusz
#       Creation time:       Wed Apr  3 10:15:26 2019


#       File generated by GOLD software.
#

@<TRIPOS>MOLECULE
C:\Users\porto\OneDrive\projekt\beta1\ligandy\L_4amj.pdb L_4amj.pdb 1|4amj|mol2|1|dock45
    65    68     1
SMALL
GASTEIGER


@<TRIPOS>ATOM
      1 C1         -22.0360   8.7752  18.3223 C.3            1 <1>                0.1015
      2 N1         -24.7907  13.1055  22.7840 N.pl3          1 <1>               -0.3540
      3 O1         -22.7907   7.7649  18.9945 O.3            1 <1>               -0.3872
      4 C2         -22.9167   9.9979  18.2254 C.3            1 <1>                0.1166
      5 N2         -22.9161   7.5935  16.3791 N.3            1 <1>               -0.3102
      6 O2         -23.4763  10.1984  19.5334 O.3            1 <1>               -0.4887
      7 C3         -23.9906  11.4175  19.8356 C.ar           1 <1>                0.1303
      8 O3         -23.4420   4.3759  14.7890 O.3            1 <1>               -0.4870
      9 C4         -24.2360  11.7736  21.1451 C.ar           1 <1>                0.0490
     10 O4         -22.9533   2.3688  12.9360 O.3            1 <1>               -0.4915
     11 C5         -23.9204  11.1471  22.3370 C.ar           1 <1>                0.0109
     12 C6         -24.7600  13.0013  21.4334 C.ar           1 <1>                0.0510
     13 C7         -24.3104  11.9617  23.3776 C.ar           1 <1>                0.0476
     14 C8         -23.3842   9.9091  22.5960 C.ar           1 <1>               -0.0519
     15 C9         -24.1214  11.5491  24.6856 C.ar           1 <1>               -0.0378
     16 C10        -23.6013  10.2754  24.9817 C.ar           1 <1>               -0.0598
     17 C11        -23.2262   9.4656  23.9414 C.ar           1 <1>               -0.0611
     18 C12        -25.1078  13.8474  20.4192 C.ar           1 <1>               -0.0375
     19 C13        -24.9202  13.4906  19.1295 C.ar           1 <1>               -0.0563
     20 C14        -24.3700  12.2597  18.8113 C.ar           1 <1>               -0.0192
     21 C15        -21.7336   8.3310  16.8910 C.3            1 <1>                0.0253
     22 C16        -22.4719   6.2472  15.8674 C.3            1 <1>                0.0302
     23 C17        -23.7124   5.3732  15.7762 C.3            1 <1>                0.1022
     24 C18        -23.4735   4.6579  13.4159 C.ar           1 <1>                0.1619
     25 C19        -23.2253   3.6569  12.4833 C.ar           1 <1>                0.1615
     26 C20        -23.2753   3.9213  11.1041 C.ar           1 <1>               -0.0163
     27 C21        -23.5207   5.1966  10.6448 C.ar           1 <1>               -0.0581
     28 C22        -23.7663   6.2014  11.5779 C.ar           1 <1>               -0.0581
     29 C23        -23.7546   5.9192  12.9483 C.ar           1 <1>               -0.0163
     30 C24        -23.2961   1.2505  12.0970 C.3            1 <1>                0.0790
     31 H1         -21.1167   8.9993  18.8635 H              1 <1>                0.0640
     32 HN1        -25.1367  13.9492  23.2181 H              1 <1>                0.1659
     33 HO1        -23.7242   7.9829  18.9547 H              1 <1>                0.2100
     34 H21        -23.7196   9.8107  17.5129 H              1 <1>                0.0723
     35 H22        -22.3095  10.8617  17.9548 H              1 <1>                0.0723
     36 HN2        -23.3431   8.1153  15.6276 H              1 <1>                0.1221
     37 H8         -23.0814   9.2701  21.7797 H              1 <1>                0.0624
     38 H9         -24.3749  12.2091  25.5014 H              1 <1>                0.0638
     39 H10        -23.5057   9.9563  26.0096 H              1 <1>                0.0618
     40 H11        -22.8104   8.4891  24.1431 H              1 <1>                0.0618
     41 H12        -25.5371  14.8125  20.6440 H              1 <1>                0.0638
     42 H13        -25.1997  14.1678  18.3362 H              1 <1>                0.0619
     43 H14        -24.2359  11.9546  17.7841 H              1 <1>                0.0654
     44 H151       -20.8667   7.6709  16.8916 H              1 <1>                0.0450
     45 H152       -21.5552   9.2083  16.2692 H              1 <1>                0.0450
     46 H161       -21.7678   5.8052  16.5726 H              1 <1>                0.0457
     47 H162       -22.0358   6.3620  14.8751 H              1 <1>                0.0457
     48 H171       -23.8884   4.8921  16.7385 H              1 <1>                0.0709
     49 H172       -24.5604   5.9789  15.4561 H              1 <1>                0.0709
     50 H20        -23.1205   3.1219  10.3955 H              1 <1>                0.0655
     51 H21        -23.5192   5.3976   9.5836 H              1 <1>                0.0619
     52 H22        -23.9685   7.2091  11.2457 H              1 <1>                0.0619
     53 H23        -23.9723   6.7165  13.6430 H              1 <1>                0.0655
     54 H241       -23.0188   0.3226  12.5966 H              1 <1>                0.0660
     55 H242       -24.3690   1.2537  11.9076 H              1 <1>                0.0660
     56 H243       -22.7602   1.3278  11.1512 H              1 <1>                0.0660
     57 ****       -22.5011   7.7131  19.9502 LP             1 <1>                0.0000
     58 ****       -22.6354   6.8823  18.5508 LP             1 <1>                0.0000
     59 ****       -23.5820   7.4737  17.1155 LP             1 <1>                0.0000
     60 ****       -22.7520  10.0104  20.1968 LP             1 <1>                0.0000
     61 ****       -24.2124   9.5309  19.6454 LP             1 <1>                0.0000
     62 ****       -22.5228   4.0330  14.9828 LP             1 <1>                0.0000
     63 ****       -24.1086   3.6458  14.9396 LP             1 <1>                0.0000
     64 ****       -21.9689   2.3185  13.1046 LP             1 <1>                0.0000
     65 ****       -23.4456   2.2506  13.7984 LP             1 <1>                0.0000
@<TRIPOS>BOND
    1    1    4 1     
    2    1   21 1     
    3    1    3 1     
    4    1   31 1     
    5    2   12 ar    
    6    2   13 ar    
    7    2   32 1     
    8    3   33 1     
    9    4    6 1     
   10    4   34 1     
   11    4   35 1     
   12    5   22 1     
   13    5   21 1     
   14    5   36 1     
   15    6    7 1     
   16    7    9 ar    
   17    7   20 ar    
   18    8   24 1     
   19    8   23 1     
   20    9   11 ar    
   21    9   12 ar    
   22   10   30 1     
   23   10   25 1     
   24   11   13 ar    
   25   11   14 ar    
   26   12   18 ar    
   27   13   15 ar    
   28   14   17 ar    
   29   14   37 1     
   30   15   16 ar    
   31   15   38 1     
   32   16   17 ar    
   33   16   39 1     
   34   17   40 1     
   35   18   19 ar    
   36   18   41 1     
   37   19   20 ar    
   38   19   42 1     
   39   20   43 1     
   40   21   44 1     
   41   21   45 1     
   42   22   23 1     
   43   22   46 1     
   44   22   47 1     
   45   23   48 1     
   46   23   49 1     
   47   24   25 ar    
   48   24   29 ar    
   49   25   26 ar    
   50   26   27 ar    
   51   26   50 1     
   52   27   28 ar    
   53   27   51 1     
   54   28   29 ar    
   55   28   52 1     
   56   29   53 1     
   57   30   54 1     
   58   30   55 1     
   59   30   56 1     
   60    3   57 1     
   61    3   58 1     
   62    5   59 1     
   63    6   60 1     
   64    6   61 1     
   65    8   62 1     
   66    8   63 1     
   67   10   64 1     
   68   10   65 1     
@<TRIPOS>SUBSTRUCTURE
      1 ****           1
@<TRIPOS>SET
LONE_PAIRS      STATIC     ATOMS    <user>   **** ""
9 57 58 59 60 61 62 63 64 65
DONOR_HYDROGENS      STATIC     ATOMS    <user>   **** ""
3 32 33 36
ATOM$BLUE        STATIC     ATOMS    COLORGROUP SYSTEM
9 57 58 59 60 61 62 63 64 65
ATOM$RED        STATIC     ATOMS    COLORGROUP SYSTEM
3 32 33 36
@<TRIPOS>COMMENT
> <Gold.Version>
5.5

> <Gold.Id.Protein>
unknown|bialko_beta1|pdb

> <Gold.Protein.ActiveResidues>
 ALA86   ASP87   VAL90   VAL94   VAL95   GLY98   ALA99   LEU101  VAL102  CYS114 
 GLU115  TRP117  THR118  SER119  LEU120  ASP121  VAL122  CYS124  VAL125  THR126 
 SER128  SER173  PHE174  ILE177  CYS199  ASP200  PHE201  TYR207  SER215  PHE299 
 TRP303  PHE306  PHE307  ASN310  PHE325  VAL326  ASN329  TRP330  GLY332  TYR333 
 SER336 

> <Gold.Score>
     Score     S(PLP)   S(hbond)     S(cho)   S(metal)  DE(clash)   DE(tors)     intcor
     91.60     -91.03       0.95       0.00       0.00       0.00       1.65       1.02

> <Gold.PLP.Fitness>
91.6032

> <Gold.PLP.PLP>
-91.0270

> <Gold.PLP.part.hbond>
-2.6788

> <Gold.PLP.part.metal>
0.0000

> <Gold.PLP.part.buried>
-9.7462

> <Gold.PLP.part.nonpolar>
-78.6977

> <Gold.PLP.part.repulsive>
0.4424

> <Gold.PLP.ligand.clash>
0.0000

> <Gold.PLP.ligand.torsion>
1.6466

> <Gold.PLP.Chemscore.Hbond>
0.9511

> <Gold.PLP.Chemscore.CHOScore>
0.0000

> <Gold.PLP.Chemscore.Metal>
0.0000

> <Gold.Chemscore.Hbonds>
donor molecule, donor type, donor heavy atom, donor atom, acceptor molecule, acceptor atom, score
      L1  H     3    33       P1  2066  0.95

> <Gold.PLP.Chemscore.Internal.Correction>
1.0162

