#       Name:                *****
#       Creating user name   student
#       Creation time:       Mon Mar 18 16:42:39 2019


#       File generated by GOLD software.
#

@<TRIPOS>MOLECULE
*****|CHEMBL184607|mol2|1|dock5
    53    55     1
SMALL
GASTEIGER


@<TRIPOS>ATOM
      1 C          -35.8571   8.9490   5.4434 C.3            1 <1>               -0.0425
      2 C          -36.3857   8.9244   4.0053 C.3            1 <1>                0.0444
      3 H          -35.5421   8.9041   3.3031 H              1 <1>                0.0545
      4 N          -37.2661  10.0490   3.6904 N.3            1 <1>               -0.3225
      5 C          -37.8711  10.8215   4.6748 C.ar           1 <1>                0.1209
      6 C          -37.4722  12.1562   4.7673 C.ar           1 <1>               -0.0010
      7 C          -38.0123  12.9955   5.7384 C.ar           1 <1>                0.0319
      8 N          -37.5581  14.3253   5.7956 N.3            1 <1>               -0.3405
      9 C          -36.2391  14.6198   5.2122 C.3            1 <1>                0.0433
     10 C          -36.0024  16.1325   5.1043 C.3            1 <1>                0.1049
     11 O          -37.1899  16.8567   5.4379 O.3            1 <1>               -0.4904
     12 C          -37.0588  18.2187   5.3276 C.ar           1 <1>                0.1206
     13 C          -38.1768  18.9680   5.6932 C.ar           1 <1>               -0.0199
     14 C          -38.1488  20.3621   5.6052 C.ar           1 <1>               -0.0583
     15 C          -36.9977  21.0153   5.1634 C.ar           1 <1>               -0.0615
     16 C          -35.8715  20.2747   4.8273 C.ar           1 <1>               -0.0583
     17 C          -35.9011  18.8800   4.9141 C.ar           1 <1>               -0.0199
     18 C          -39.0303  12.4857   6.5362 C.ar           1 <1>               -0.0226
     19 C          -39.3782  11.1535   6.3861 C.ar           1 <1>                0.0314
     20 N          -38.8115  10.3174   5.4879 N.ar           1 <1>               -0.2404
     21 C          -37.2311   7.6607   3.8241 C.ar           1 <1>               -0.0275
     22 C          -37.5726   6.8472   4.9134 C.ar           1 <1>               -0.0568
     23 C          -38.3692   5.7126   4.7260 C.ar           1 <1>               -0.0614
     24 C          -38.8297   5.3774   3.4529 C.ar           1 <1>               -0.0617
     25 C          -38.4933   6.1702   2.3604 C.ar           1 <1>               -0.0614
     26 C          -37.6992   7.3009   2.5448 C.ar           1 <1>               -0.0568
     27 H          -36.6395   9.2244   6.1599 H              1 <1>                0.0251
     28 H          -35.0394   9.6665   5.5578 H              1 <1>                0.0251
     29 H          -35.4586   7.9714   5.7382 H              1 <1>                0.0251
     30 H          -36.8306  10.6681   3.0115 H              1 <1>                0.1480
     31 H          -36.7215  12.5373   4.0822 H              1 <1>                0.0670
     32 H          -37.6279  14.6684   6.7540 H              1 <1>                0.1462
     33 H          -36.1138  14.1297   4.2395 H              1 <1>                0.0495
     34 H          -35.4683  14.1851   5.8604 H              1 <1>                0.0495
     35 H          -35.6887  16.3865   4.0838 H              1 <1>                0.0712
     36 H          -35.2019  16.3940   5.7981 H              1 <1>                0.0712
     37 H          -39.0789  18.4656   6.0358 H              1 <1>                0.0654
     38 H          -39.0276  20.9392   5.8768 H              1 <1>                0.0619
     39 H          -36.9794  22.0984   5.0915 H              1 <1>                0.0618
     40 H          -34.9673  20.7772   4.4954 H              1 <1>                0.0619
     41 H          -34.9871  18.3526   4.6608 H              1 <1>                0.0654
     42 H          -39.5399  13.0890   7.2771 H              1 <1>                0.0651
     43 H          -40.1527  10.7104   7.0070 H              1 <1>                0.0831
     44 H          -37.2288   7.0911   5.9156 H              1 <1>                0.0621
     45 H          -38.6357   5.0892   5.5755 H              1 <1>                0.0618
     46 H          -39.4525   4.4970   3.3115 H              1 <1>                0.0618
     47 H          -38.8453   5.9129   1.3652 H              1 <1>                0.0618
     48 H          -37.4367   7.9121   1.6830 H              1 <1>                0.0621
     49 ****       -38.0499   9.5275   3.3533 LP             1 <1>                0.0000
     50 ****       -38.1727  14.8235   5.1840 LP             1 <1>                0.0000
     51 ****       -37.4367  16.6394   6.3823 LP             1 <1>                0.0000
     52 ****       -37.9225  16.5600   4.8253 LP             1 <1>                0.0000
     53 ****       -39.0836   9.3568   5.4315 LP             1 <1>                0.0000
@<TRIPOS>BOND
    1    2    4 1     
    2    4    5 1     
    3    5    6 ar    
    4    6    7 ar    
    5    7    8 1     
    6    8    9 1     
    7    9   10 1     
    8   10   11 1     
    9   11   12 1     
   10   12   13 ar    
   11   13   14 ar    
   12   14   15 ar    
   13   15   16 ar    
   14   16   17 ar    
   15   12   17 ar    
   16    7   18 ar    
   17   18   19 ar    
   18   19   20 ar    
   19    5   20 ar    
   20    2   21 1     
   21   21   22 ar    
   22   22   23 ar    
   23   23   24 ar    
   24   24   25 ar    
   25   25   26 ar    
   26   21   26 ar    
   27    2    3 1     
   28    2    1 1     
   29    1   27 1     
   30    1   28 1     
   31    1   29 1     
   32    4   30 1     
   33    6   31 1     
   34    8   32 1     
   35    9   33 1     
   36    9   34 1     
   37   10   35 1     
   38   10   36 1     
   39   13   37 1     
   40   14   38 1     
   41   15   39 1     
   42   16   40 1     
   43   17   41 1     
   44   18   42 1     
   45   19   43 1     
   46   22   44 1     
   47   23   45 1     
   48   24   46 1     
   49   25   47 1     
   50   26   48 1     
   51    4   49 1     
   52    8   50 1     
   53   11   51 1     
   54   11   52 1     
   55   20   53 1     
@<TRIPOS>SUBSTRUCTURE
      1 ****           1
@<TRIPOS>SET
LONE_PAIRS      STATIC     ATOMS    <user>   **** ""
5 49 50 51 52 53
DONOR_HYDROGENS      STATIC     ATOMS    <user>   **** ""
2 30 32
ATOM$BLUE        STATIC     ATOMS    COLORGROUP SYSTEM
5 49 50 51 52 53
ATOM$RED        STATIC     ATOMS    COLORGROUP SYSTEM
2 30 32
@<TRIPOS>COMMENT
> <Gold.Version>
5.5

> <Gold.Id.Protein>
ID|ID_protein|mol2

> <Gold.Protein.ActiveResidues>
 LEU18   LEU52   SER53   ALA55   VAL56   ALA57   MET59   PRO60   PHE61   VAL62  
 SER63   VAL64   LEU67   TRP72   PHE78   CYS79   VAL81   PHE82   ILE83   ALA84  
 MET85   ASP86   VAL87   MET88   CYS89   CYS90   SER93   TRP131  THR138  LEU139 
 LEU142  PHE161  GLU222  GLU225  LEU229  LYS248  THR251  THR252  GLY254  ILE255 

> <Gold.Score>
     Score     S(PLP)   S(hbond)     S(cho)   S(metal)  DE(clash)   DE(tors)     intcor
     72.76     -75.42       0.00       0.00       0.00       0.00       1.42       0.18

> <Gold.PLP.Fitness>
72.7597

> <Gold.PLP.PLP>
-75.4199

> <Gold.PLP.part.hbond>
-0.9340

> <Gold.PLP.part.metal>
0.0000

> <Gold.PLP.part.buried>
-8.2637

> <Gold.PLP.part.nonpolar>
-65.8572

> <Gold.PLP.part.repulsive>
0.0515

> <Gold.PLP.ligand.clash>
0.0000

> <Gold.PLP.ligand.torsion>
1.4208

> <Gold.PLP.Chemscore.Hbond>
0.0000

> <Gold.PLP.Chemscore.CHOScore>
0.0000

> <Gold.PLP.Chemscore.Metal>
0.0000

> <Gold.PLP.Chemscore.Internal.Correction>
0.1814

