#       Name:                plp ligand
#       Creating user name   student
#       Creation time:       Mon Mar 18 16:42:05 2019


#       File generated by GOLD software.
#

@<TRIPOS>MOLECULE
plp ligand
    53    55     1
SMALL
GASTEIGER


@<TRIPOS>ATOM
      1 C           -2.5366   3.6619   0.6726 NONPOLAR       1 <1>               -0.0425
      2 C           -1.3394   3.0966   1.4442 NONPOLAR       1 <1>                0.0444
      3 H           -0.4127   3.5525   1.0720 0ÿ˜o_          1 <1>                0.0545
      4 N           -1.2382   1.6393   1.3737 DONACC         1 <1>               -0.3225
      5 C           -1.2603   0.9471   0.1686 NONPOLAR       1 <1>                0.1209
      6 C           -1.3791  -0.4422   0.2380 NONPOLAR       1 <1>               -0.0010
      7 C           -1.3885  -1.2151  -0.9204 NONPOLAR       1 <1>                0.0319
      8 N           -1.4916  -2.6114  -0.7876 DONACC         1 <1>               -0.3405
      9 C           -0.7618  -3.4432  -1.7584 NONPOLAR       1 <1>                0.0433
     10 C            0.7443  -3.1494  -1.7231 NONPOLAR       1 <1>                0.1049
     11 O            1.4353  -3.9236  -2.7075 ACCEPTOR       1 <1>               -0.4904
     12 C            2.7783  -3.6503  -2.7862 NONPOLAR       1 <1>                0.1206
     13 C            3.5927  -4.7138  -3.1744 NONPOLAR       1 <1>               -0.0199
     14 C            4.9757  -4.5414  -3.2728 NONPOLAR       1 <1>               -0.0583
     15 C            5.5505  -3.3005  -2.9961 NONPOLAR       1 <1>               -0.0615
     16 C            4.7401  -2.2303  -2.6388 NONPOLAR       1 <1>               -0.0583
     17 C            3.3569  -2.4042  -2.5390 NONPOLAR       1 <1>               -0.0199
     18 C           -1.3807  -0.5477  -2.1399 NONPOLAR       1 <1>               -0.0226
     19 C           -1.2661   0.8326  -2.1329 NONPOLAR       1 <1>                0.0314
     20 N           -1.1919   1.5826  -1.0108 ACCEPTOR       1 <1>               -0.2404
     21 C           -1.5166   3.4379   2.9263 NONPOLAR       1 <1>               -0.0275
     22 C           -0.6600   4.3368   3.5769 NONPOLAR       1 <1>               -0.0568
     23 C           -0.8594   4.6534   4.9249 NONPOLAR       1 <1>               -0.0614
     24 C           -1.9108   4.0759   5.6363 NONPOLAR       1 <1>               -0.0617
     25 C           -2.7652   3.1762   5.0071 NONPOLAR       1 <1>               -0.0614
     26 C           -2.5680   2.8589   3.6642 NONPOLAR       1 <1>               -0.0568
     27 H           -3.4404   3.0613   0.8266 0ÿ˜o_          1 <1>                0.0251
     28 H           -2.3418   3.6925  -0.4034 0ÿ˜o_          1 <1>                0.0251
     29 H           -2.7586   4.6905   0.9794 0ÿ˜o_          1 <1>                0.0251
     30 H           -0.4533   1.3056   1.9273 0ÿ˜o_          1 <1>                0.1480
     31 H           -1.4502  -0.9238   1.2081 0ÿ˜o_          1 <1>                0.0670
     32 H           -2.4753  -2.8769  -0.7330 0ÿ˜o_          1 <1>                0.1462
     33 H           -1.1645  -3.3222  -2.7709 0ÿ˜o_          1 <1>                0.0495
     34 H           -0.9240  -4.4975  -1.5029 0ÿ˜o_          1 <1>                0.0495
     35 H            1.1430  -3.3776  -0.7264 0ÿ˜o_          1 <1>                0.0712
     36 H            0.8804  -2.0859  -1.9258 0ÿ˜o_          1 <1>                0.0712
     37 H            3.1520  -5.6851  -3.3889 0ÿ˜o_          1 <1>                0.0654
     38 H            5.6061  -5.3773  -3.5608 0ÿ˜o_          1 <1>                0.0619
     39 H            6.6258  -3.1697  -3.0688 0ÿ˜o_          1 <1>                0.0618
     40 H            5.1793  -1.2577  -2.4350 0ÿ˜o_          1 <1>                0.0619
     41 H            2.7694  -1.5299  -2.2780 0ÿ˜o_          1 <1>                0.0654
     42 H           -1.4413  -1.0723  -3.0853 0ÿ˜o_          1 <1>                0.0651
     43 H           -1.2324   1.3899  -3.0656 0ÿ˜o_          1 <1>                0.0831
     44 H            0.1637   4.8026   3.0415 0ÿ˜o_          1 <1>                0.0621
     45 H           -0.1955   5.3557   5.4222 0ÿ˜o_          1 <1>                0.0618
     46 H           -2.0655   4.3277   6.6831 0ÿ˜o_          1 <1>                0.0618
     47 H           -3.5840   2.7196   5.5562 0ÿ˜o_          1 <1>                0.0618
     48 H           -3.2384   2.1496   3.1818 0ÿ˜o_          1 <1>                0.0621
     49 ****        -2.1432   1.4150   1.7353 0ÿ˜o_          1 <1>                0.0000
     50 ****        -1.0107  -2.8154   0.0652 0ÿ˜o_          1 <1>                0.0000
     51 ****         1.0233  -3.7388  -3.5997 0ÿ˜o_          1 <1>                0.0000
     52 ****         1.3233  -4.8915  -2.4826 0ÿ˜o_          1 <1>                0.0000
     53 ****        -1.0896   2.5763  -1.0582 0ÿ˜o_          1 <1>                0.0000
@<TRIPOS>BOND
    1    2    4 1     
    2    4    5 1     
    3    5    6 ar    
    4    6    7 ar    
    5    7    8 1     
    6    8    9 1     
    7    9   10 1     
    8   10   11 1     
    9   11   12 1     
   10   12   13 ar    
   11   13   14 ar    
   12   14   15 ar    
   13   15   16 ar    
   14   16   17 ar    
   15   12   17 ar    
   16    7   18 ar    
   17   18   19 ar    
   18   19   20 ar    
   19    5   20 ar    
   20    2   21 1     
   21   21   22 ar    
   22   22   23 ar    
   23   23   24 ar    
   24   24   25 ar    
   25   25   26 ar    
   26   21   26 ar    
   27    2    3 1     
   28    2    1 1     
   29    1   27 1     
   30    1   28 1     
   31    1   29 1     
   32    4   30 1     
   33    6   31 1     
   34    8   32 1     
   35    9   33 1     
   36    9   34 1     
   37   10   35 1     
   38   10   36 1     
   39   13   37 1     
   40   14   38 1     
   41   15   39 1     
   42   16   40 1     
   43   17   41 1     
   44   18   42 1     
   45   19   43 1     
   46   22   44 1     
   47   23   45 1     
   48   24   46 1     
   49   25   47 1     
   50   26   48 1     
   51    4   49 1     
   52    8   50 1     
   53   11   51 1     
   54   11   52 1     
   55   20   53 1     
@<TRIPOS>SUBSTRUCTURE
      1 ****           1
@<TRIPOS>SET
LONE_PAIRS      STATIC     ATOMS    <user>   **** ""
5 49 50 51 52 53
DONOR_HYDROGENS      STATIC     ATOMS    <user>   **** ""
2 30 32
ATOM$BLUE        STATIC     ATOMS    COLORGROUP SYSTEM
5 49 50 51 52 53
ATOM$RED        STATIC     ATOMS    COLORGROUP SYSTEM
2 30 32
