#       Name:                C:\Users\porto\OneDrive\projekt\beta1\ligandy\L_5a8e.pdb L_5a8e.pdb 1
#       Creating user name   student
#       Creation time:       Mon Apr 08 15:34:06 2019


#       File generated by GOLD software.
#

@<TRIPOS>MOLECULE
C:\Users\porto\OneDrive\projekt\beta1\ligandy\L_5a8e.pdb L_5a8e.pdb 1|5a8e|mol2|1|dock25
    51    52     1
SMALL
GASTEIGER


@<TRIPOS>ATOM
      1 C1         -24.3869   6.9693  12.7121 C.ar           1 <1>                0.1185
      2 N1         -24.5962   5.7265  13.1888 N.pl3          1 <1>               -0.3459
      3 O1         -23.0484   8.6346  16.5807 O.3            1 <1>               -0.4887
      4 C2         -23.9255   7.8734  13.6527 C.ar           1 <1>               -0.0151
      5 N2         -24.4635   9.7691  20.7324 N.3            1 <1>               -0.3088
      6 O2         -24.8185   9.6921  18.1592 O.3            1 <1>               -0.3872
      7 C3         -23.8557   7.0973  14.8492 C.ar           1 <1>                0.0428
      8 N3         -24.7276   7.6319  10.3228 N.1            1 <1>               -0.1893
      9 C4         -23.4535   7.3656  16.2590 C.ar           1 <1>                0.1298
     10 C5         -23.5113   6.3305  17.2096 C.ar           1 <1>               -0.0190
     11 C6         -23.9307   5.0422  16.8775 C.ar           1 <1>               -0.0534
     12 C7         -24.3178   4.7088  15.5843 C.ar           1 <1>               -0.0263
     13 C8         -24.2996   5.7301  14.5099 C.ar           1 <1>                0.0539
     14 C9         -22.5634   9.0031  17.8722 C.3            1 <1>                0.1166
     15 C10        -23.4735  10.0402  18.4977 C.3            1 <1>                0.1015
     16 C11        -23.2436  10.0738  20.0105 C.3            1 <1>                0.0256
     17 C12        -24.5306   9.7528  22.1894 C.3            1 <1>                0.0108
     18 C13        -23.5165   8.7374  22.7158 C.3            1 <1>               -0.0473
     19 C14        -25.9237   9.2881  22.6222 C.3            1 <1>               -0.0473
     20 C15        -24.2288  11.1673  22.7008 C.3            1 <1>               -0.0473
     21 C16        -24.5703   7.2956  11.4284 C.1            1 <1>                0.1171
     22 C17        -24.7508   3.3187  15.2458 C.3            1 <1>               -0.0377
     23 HN1        -24.9201   4.9965  12.5713 H              1 <1>                0.1665
     24 H2         -23.7185   8.8934  13.3653 H              1 <1>                0.0653
     25 HN2        -24.7097   8.8570  20.3732 H              1 <1>                0.1225
     26 HO2        -25.1111   8.9662  18.7141 H              1 <1>                0.2100
     27 H5         -23.2259   6.5216  18.2339 H              1 <1>                0.0654
     28 H6         -23.9608   4.2721  17.6345 H              1 <1>                0.0622
     29 H91        -21.5578   9.4118  17.7788 H              1 <1>                0.0723
     30 H92        -22.5254   8.1208  18.5106 H              1 <1>                0.0723
     31 H10        -23.2410  11.0198  18.0789 H              1 <1>                0.0640
     32 H111       -22.4737   9.3498  20.2763 H              1 <1>                0.0451
     33 H112       -22.8868  11.0620  20.3010 H              1 <1>                0.0451
     34 H131       -23.5557   8.7144  23.8048 H              1 <1>                0.0247
     35 H132       -23.7545   7.7489  22.3239 H              1 <1>                0.0247
     36 H133       -22.5151   9.0232  22.3951 H              1 <1>                0.0247
     37 H141       -25.9812   9.2741  23.7109 H              1 <1>                0.0247
     38 H142       -26.6747   9.9736  22.2289 H              1 <1>                0.0247
     39 H143       -26.1088   8.2857  22.2363 H              1 <1>                0.0247
     40 H151       -24.2742  11.1776  23.7903 H              1 <1>                0.0247
     41 H152       -23.2324  11.4669  22.3763 H              1 <1>                0.0247
     42 H153       -24.9658  11.8643  22.3009 H              1 <1>                0.0247
     43 H171       -25.0115   3.2663  14.1883 H              1 <1>                0.0278
     44 H172       -23.9378   2.6238  15.4546 H              1 <1>                0.0278
     45 H173       -25.6194   3.0517  15.8474 H              1 <1>                0.0278
     46 ****       -22.3147   8.8582  15.9391 LP             1 <1>                0.0000
     47 ****       -23.8359   9.2255  16.4056 LP             1 <1>                0.0000
     48 ****       -25.0727  10.5457  20.5718 LP             1 <1>                0.0000
     49 ****       -24.8593   9.4151  17.1992 LP             1 <1>                0.0000
     50 ****       -25.4136  10.4827  18.3035 LP             1 <1>                0.0000
     51 ****       -24.8625   7.9203   9.3748 LP             1 <1>                0.0000
@<TRIPOS>BOND
    1    1    2 ar    
    2    1    4 ar    
    3    1   21 1     
    4    2   13 ar    
    5    2   23 1     
    6    3   14 1     
    7    3    9 1     
    8    4    7 ar    
    9    4   24 1     
   10    5   17 1     
   11    5   16 1     
   12    5   25 1     
   13    6   15 1     
   14    6   26 1     
   15    7    9 ar    
   16    7   13 ar    
   17    8   21 3     
   18    9   10 ar    
   19   10   11 ar    
   20   10   27 1     
   21   11   12 ar    
   22   11   28 1     
   23   12   22 1     
   24   12   13 ar    
   25   14   15 1     
   26   14   29 1     
   27   14   30 1     
   28   15   16 1     
   29   15   31 1     
   30   16   32 1     
   31   16   33 1     
   32   17   18 1     
   33   17   19 1     
   34   17   20 1     
   35   18   34 1     
   36   18   35 1     
   37   18   36 1     
   38   19   37 1     
   39   19   38 1     
   40   19   39 1     
   41   20   40 1     
   42   20   41 1     
   43   20   42 1     
   44   22   43 1     
   45   22   44 1     
   46   22   45 1     
   47    3   46 1     
   48    3   47 1     
   49    5   48 1     
   50    6   49 1     
   51    6   50 1     
   52    8   51 1     
@<TRIPOS>SUBSTRUCTURE
      1 ****           1
@<TRIPOS>SET
LONE_PAIRS      STATIC     ATOMS    <user>   **** ""
6 46 47 48 49 50 51
DONOR_HYDROGENS      STATIC     ATOMS    <user>   **** ""
3 23 25 26
ATOM$BLUE        STATIC     ATOMS    COLORGROUP SYSTEM
6 46 47 48 49 50 51
ATOM$RED        STATIC     ATOMS    COLORGROUP SYSTEM
3 23 25 26
@<TRIPOS>COMMENT
> <Gold.Version>
5.5

> <Gold.Id.Protein>
unknown|bialko_beta1|pdb

> <Gold.Protein.ActiveResidues>
 ALA86   ASP87   VAL90   VAL94   VAL95   GLY98   ALA99   LEU101  VAL102  CYS114 
 GLU115  TRP117  THR118  SER119  LEU120  ASP121  VAL122  CYS124  VAL125  THR126 
 SER128  SER173  PHE174  ILE177  CYS199  ASP200  PHE201  TYR207  SER215  PHE299 
 TRP303  PHE306  PHE307  ASN310  PHE325  VAL326  ASN329  TRP330  GLY332  TYR333 
 SER336 

> <Gold.Score>
     Score         DG    S(hbond)    S(metal)    S(lipo)     H(rot)  DE(clash)    DE(int)     intcor
     31.87     -33.53       1.99        0.00     236.59       2.45       0.36       1.30       0.04

> <Gold.Chemscore.Fitness>
31.8674

> <Gold.Chemscore.DG>
-33.5256

> <Gold.Chemscore.ZeroCoef>
-5.4800

> <Gold.Chemscore.Hbond>
1.9901

> <Gold.Chemscore.Metal>
0.0000

> <Gold.Chemscore.Lipo>
236.5943

> <Gold.Chemscore.Internal_Hbond>
0.0000

> <Gold.Chemscore.DEClash>
0.3581

> <Gold.Chemscore.DEInternal>
1.3001

> <Gold.Chemscore.Rot>
2.4542

> <Gold.Chemscore.Internal.Correction>
0.0435

> <Gold.Chemscore.Hbonds>
donor molecule, donor type, donor heavy atom, donor atom, acceptor molecule, acceptor atom, score
      L1  H     5    25       P1  2066  0.99
      L1  H     6    26       P1  2066  1.00

> <Gold.Chemscore.Hbond.Weighted>
-6.6468

> <Gold.Chemscore.Metal.Weighted>
-0.0000

> <Gold.Chemscore.Lipo.Weighted>
-27.6815

> <Gold.Chemscore.Internal_Hbond.Weighted>
0.0000

> <Gold.Chemscore.DEClash.Weighted>
0.3581

> <Gold.Chemscore.DEInternal.Weighted>
1.3001

> <Gold.Chemscore.Rot.Weighted>
6.2827

> <Gold.Chemscore.Internal.Correction.Weighted>
0.0435

