#       Name:                C:\Users\porto\OneDrive\projekt\beta2\ligandy\L_3ny8.pdb L_3ny8.pdb 1
#       Creating user name   student
#       Creation time:       Mon Apr 01 15:20:28 2019


#       File generated by GOLD software.
#

@<TRIPOS>MOLECULE
C:\Users\porto\OneDrive\projekt\beta2\ligandy\L_3ny8.pdb L_3ny8.pdb 1|3ny8|mol2|1|dock5
    52    53     1
SMALL
GASTEIGER


@<TRIPOS>ATOM
      1 C1         -26.4203  10.9007   5.6225 C.3            1 <1>               -0.0268
      2 N1         -34.3610   6.6552   7.9323 N.3            1 <1>               -0.3087
      3 O1         -30.2605   8.4716   7.3575 O.3            1 <1>               -0.4891
      4 C2         -26.2971   9.4086   5.4662 C.3            1 <1>               -0.0449
      5 O2         -31.9258   6.5094   9.1407 O.3            1 <1>               -0.3869
      6 C3         -27.2708   8.7662   6.4303 C.3            1 <1>               -0.0237
      7 C4         -28.4001   9.8250   6.4923 C.ar           1 <1>               -0.0023
      8 C5         -27.8992  11.0481   6.0233 C.ar           1 <1>               -0.0378
      9 C6         -28.7416  12.1501   5.9378 C.ar           1 <1>               -0.0468
     10 C7         -28.2057  13.4696   5.3998 C.3            1 <1>               -0.0394
     11 C8         -30.0730  12.0584   6.3276 C.ar           1 <1>               -0.0551
     12 C9         -30.5831  10.8447   6.7857 C.ar           1 <1>               -0.0194
     13 C10        -29.7530   9.7159   6.8523 C.ar           1 <1>                0.1241
     14 C11        -31.6654   8.2092   7.4503 C.3            1 <1>                0.1169
     15 C12        -31.9143   6.7039   7.7445 C.3            1 <1>                0.1041
     16 C13        -33.2434   6.1837   7.1185 C.3            1 <1>                0.0342
     17 C14        -33.4303   6.7187   5.7049 C.3            1 <1>               -0.0472
     18 C15        -35.3838   5.6526   8.1664 C.3            1 <1>                0.0023
     19 C16        -34.7133   4.3510   8.5796 C.3            1 <1>               -0.0499
     20 C17        -36.2914   6.0991   9.3080 C.3            1 <1>               -0.0499
     21 H11        -26.2631  11.3764   4.6541 H              1 <1>                0.0313
     22 H12        -25.7910  11.2275   6.4505 H              1 <1>                0.0313
     23 HN1        -34.0195   6.9487   8.8360 H              1 <1>                0.1225
     24 H21        -25.2823   9.0997   5.7167 H              1 <1>                0.0272
     25 H22        -26.5581   9.1281   4.4458 H              1 <1>                0.0272
     26 HO2        -32.7040   6.9271   9.5161 H              1 <1>                0.2100
     27 H31        -26.8021   8.6847   7.4107 H              1 <1>                0.0314
     28 H32        -27.6625   7.8505   5.9865 H              1 <1>                0.0314
     29 H71        -29.0015  14.2149   5.4062 H              1 <1>                0.0278
     30 H72        -27.3837  13.8113   6.0278 H              1 <1>                0.0278
     31 H73        -27.8484  13.3281   4.3797 H              1 <1>                0.0278
     32 H8         -30.7118  12.9278   6.2756 H              1 <1>                0.0621
     33 H9         -31.6175  10.7737   7.0895 H              1 <1>                0.0654
     34 H111       -32.1484   8.4797   6.5116 H              1 <1>                0.0723
     35 H112       -32.0959   8.8116   8.2508 H              1 <1>                0.0723
     36 H12        -31.0885   6.1300   7.3239 H              1 <1>                0.0643
     37 H13        -33.2382   5.0939   7.0998 H              1 <1>                0.0484
     38 H141       -32.6071   6.3803   5.0761 H              1 <1>                0.0245
     39 H142       -34.3721   6.3514   5.2987 H              1 <1>                0.0245
     40 H143       -33.4448   7.8085   5.7273 H              1 <1>                0.0245
     41 H15        -35.9708   5.4990   7.2611 H              1 <1>                0.0455
     42 H161       -35.4737   3.5909   8.7575 H              1 <1>                0.0245
     43 H162       -34.0462   4.0171   7.7854 H              1 <1>                0.0245
     44 H163       -34.1389   4.5112   9.4926 H              1 <1>                0.0245
     45 H171       -37.0585   5.3434   9.4802 H              1 <1>                0.0245
     46 H172       -35.6999   6.2286  10.2142 H              1 <1>                0.0245
     47 H173       -36.7663   7.0445   9.0465 H              1 <1>                0.0245
     48 ****       -34.7740   7.4046   7.4149 LP             1 <1>                0.0000
     49 ****       -29.8955   8.3753   8.2835 LP             1 <1>                0.0000
     50 ****       -29.8794   7.7554   6.7729 LP             1 <1>                0.0000
     51 ****       -31.1041   6.9155   9.5405 LP             1 <1>                0.0000
     52 ****       -31.9444   5.5297   9.3405 LP             1 <1>                0.0000
@<TRIPOS>BOND
    1    1    4 1     
    2    1    8 1     
    3    1   21 1     
    4    1   22 1     
    5    2   16 1     
    6    2   18 1     
    7    2   23 1     
    8    3   13 1     
    9    3   14 1     
   10    4    6 1     
   11    4   24 1     
   12    4   25 1     
   13    5   15 1     
   14    5   26 1     
   15    6    7 1     
   16    6   27 1     
   17    6   28 1     
   18    7    8 ar    
   19    7   13 ar    
   20    8    9 ar    
   21    9   10 1     
   22    9   11 ar    
   23   10   29 1     
   24   10   30 1     
   25   10   31 1     
   26   11   12 ar    
   27   11   32 1     
   28   12   13 ar    
   29   12   33 1     
   30   14   15 1     
   31   14   34 1     
   32   14   35 1     
   33   15   16 1     
   34   15   36 1     
   35   16   17 1     
   36   16   37 1     
   37   17   38 1     
   38   17   39 1     
   39   17   40 1     
   40   18   19 1     
   41   18   20 1     
   42   18   41 1     
   43   19   42 1     
   44   19   43 1     
   45   19   44 1     
   46   20   45 1     
   47   20   46 1     
   48   20   47 1     
   49    2   48 1     
   50    3   49 1     
   51    3   50 1     
   52    5   51 1     
   53    5   52 1     
@<TRIPOS>SUBSTRUCTURE
      1 ****           1
@<TRIPOS>SET
LONE_PAIRS      STATIC     ATOMS    <user>   **** ""
5 48 49 50 51 52
DONOR_HYDROGENS      STATIC     ATOMS    <user>   **** ""
2 23 26
ATOM$BLUE        STATIC     ATOMS    COLORGROUP SYSTEM
5 48 49 50 51 52
ATOM$RED        STATIC     ATOMS    COLORGROUP SYSTEM
2 23 26
@<TRIPOS>COMMENT
> <Gold.Version>
5.5

> <Gold.Id.Protein>
unknown|dok_beta2|pdb

> <Gold.Protein.RotatedTorsions>
[ 4175 4166 4165 4163 ] final -170.65 input -179.98 | X-H torsion
[ 1294 1290 1288 1285 ] final   -9.76 input -179.99 | X-H torsion
[ 4033 4024 4023 4021 ] final    6.24 input  179.98 | X-H torsion
[ 1412 1408 1406 1403 ] final   48.01 input -179.99 | X-H torsion
[ 2830 2825 2824 2821 ] final -174.93 input -179.98 | X-H torsion
[ 2723 2714 2713 2711 ] final  -68.36 input -179.98 | X-H torsion
[ 2773 2768 2767 2764 ] final  135.17 input  180.00 | X-H torsion

> <Gold.Protein.ActiveResidues>
 TRP109  THR110  ASP113  VAL114  VAL117  THR118  PHE193  TYR199  SER203  SER207 
 PHE208  TRP286  PHE289  PHE290  ASN293  TYR308  ASN312  TYR316 

> <Gold.Protein.RotatedAtoms>
  -35.2599    4.7556    2.1537 H   0  0  0  0  0  0  0  0  0  0  0  0  # atno 1294 bound_to 1290
  -28.2744   14.8472    2.9246 H   0  0  0  0  0  0  0  0  0  0  0  0  # atno 1412 bound_to 1408
  -25.9699    8.4301    2.1377 H   0  0  0  0  0  0  0  0  0  0  0  0  # atno 2723 bound_to 2714
  -24.3689    9.5910    2.3663 H   0  0  0  0  0  0  0  0  0  0  0  0  # atno 2773 bound_to 2768
  -24.9523   13.0017    2.7699 H   0  0  0  0  0  0  0  0  0  0  0  0  # atno 2830 bound_to 2825
  -29.2127    5.7811   10.5996 H   0  0  0  0  0  0  0  0  0  0  0  0  # atno 4033 bound_to 4024
  -36.1968    9.2641    7.5200 H   0  0  0  0  0  0  0  0  0  0  0  0  # atno 4175 bound_to 4166
  -37.7192    8.8168    7.3123 LP  0  0  0  0  0  0  0  0  0  0  0  0  # atno 4597 bound_to 4166
  -36.8656    8.2934    8.6023 LP  0  0  0  0  0  0  0  0  0  0  0  0  # atno 4598 bound_to 4166
  -33.9069    3.9246    2.3540 LP  0  0  0  0  0  0  0  0  0  0  0  0  # atno 4603 bound_to 1290
  -34.7871    3.7665    0.9877 LP  0  0  0  0  0  0  0  0  0  0  0  0  # atno 4604 bound_to 1290
  -27.7800    5.7508   11.3127 LP  0  0  0  0  0  0  0  0  0  0  0  0  # atno 4607 bound_to 4024
  -28.6996    7.0998   11.3478 LP  0  0  0  0  0  0  0  0  0  0  0  0  # atno 4608 bound_to 4024
  -26.7116   15.1744    3.0323 LP  0  0  0  0  0  0  0  0  0  0  0  0  # atno 4611 bound_to 1408
  -27.3395   14.5504    1.6601 LP  0  0  0  0  0  0  0  0  0  0  0  0  # atno 4612 bound_to 1408
  -23.3651   13.1431    2.9150 LP  0  0  0  0  0  0  0  0  0  0  0  0  # atno 4613 bound_to 2825
  -24.2111   14.1754    1.9741 LP  0  0  0  0  0  0  0  0  0  0  0  0  # atno 4614 bound_to 2825

> <Gold.Score>
     Score     S(PLP)   S(hbond)     S(cho)   S(metal)  DE(clash)   DE(tors)     intcor
     67.46     -64.51       2.00       0.00       0.00       0.00       1.58       0.10

> <Gold.PLP.Fitness>
67.4581

> <Gold.PLP.PLP>
-64.5093

> <Gold.PLP.part.hbond>
-2.0000

> <Gold.PLP.part.metal>
0.0000

> <Gold.PLP.part.buried>
-5.7374

> <Gold.PLP.part.nonpolar>
-57.5897

> <Gold.PLP.part.repulsive>
0.0113

> <Gold.PLP.ligand.clash>
0.0000

> <Gold.PLP.ligand.torsion>
1.5778

> <Gold.PLP.Chemscore.Hbond>
2.0000

> <Gold.PLP.Chemscore.CHOScore>
0.0000

> <Gold.PLP.Chemscore.Metal>
0.0000

> <Gold.Chemscore.Hbonds>
donor molecule, donor type, donor heavy atom, donor atom, acceptor molecule, acceptor atom, score
      L1  H     2    23       P1  4098  1.00
      L1  H     5    26       P1  4098  1.00

> <Gold.PLP.Chemscore.Internal.Correction>
0.1043

