#       Name:                C:\Users\porto\OneDrive\projekt\beta1\ligandy\L_6ibl.pdb L_6ibl.pdb 1
#       Creating user name   student
#       Creation time:       Mon Apr 08 16:30:17 2019


#       File generated by GOLD software.
#

@<TRIPOS>MOLECULE
C:\Users\porto\OneDrive\projekt\beta1\ligandy\L_6ibl.pdb L_6ibl.pdb 1|6ibl|mol2|1|dock31
    58    59     1
SMALL
GASTEIGER


@<TRIPOS>ATOM
      1 C1         -21.8888   7.5524  15.8527 C.3            1 <1>               -0.0494
      2 N1         -23.4154   8.6039  17.5339 N.3            1 <1>               -0.3104
      3 O1         -22.8620   3.0980  12.0735 O.3            1 <1>               -0.4951
      4 C2         -22.9268   7.3239  16.9681 C.3            1 <1>                0.0089
      5 N2         -24.5006  12.4822  23.1520 N.am           1 <1>               -0.2852
      6 O2         -25.0806  14.2829  21.2718 O.3            1 <1>               -0.5049
      7 C3         -24.1161   6.4616  16.4917 C.3            1 <1>               -0.0125
      8 O3         -23.7064  10.6907  24.2842 O.2            1 <1>               -0.2792
      9 C4         -23.7869   5.5601  15.3202 C.ar           1 <1>               -0.0457
     10 O4         -23.1467   8.2880  20.1284 O.3            1 <1>               -0.3859
     11 C5         -23.5246   4.2061  15.5126 C.ar           1 <1>               -0.0551
     12 C6         -23.2232   3.3654  14.4521 C.ar           1 <1>               -0.0197
     13 C7         -23.1756   3.8820  13.1580 C.ar           1 <1>                0.1201
     14 C8         -23.4475   5.2332  12.9452 C.ar           1 <1>               -0.0197
     15 C9         -23.7436   6.0584  14.0229 C.ar           1 <1>               -0.0551
     16 C10        -23.0198   1.6775  12.1484 C.3            1 <1>                0.0788
     17 C11        -22.3812   9.4285  18.1683 C.3            1 <1>                0.0264
     18 C12        -22.4944   9.4733  19.6908 C.3            1 <1>                0.0927
     19 C13        -23.1762  10.7758  20.0981 C.ar           1 <1>               -0.0160
     20 C14        -23.5122  11.0024  21.4321 C.ar           1 <1>               -0.0312
     21 C15        -24.1429  12.1834  21.8183 C.ar           1 <1>                0.0755
     22 C16        -24.4629  13.1517  20.8602 C.ar           1 <1>                0.1380
     23 C17        -24.1190  12.9277  19.5285 C.ar           1 <1>               -0.0180
     24 C18        -23.4854  11.7568  19.1629 C.ar           1 <1>               -0.0525
     25 C19        -24.2806  11.7682  24.2546 C.2            1 <1>                0.2042
     26 H11        -21.5550   6.5910  15.4637 H              1 <1>                0.0245
     27 H12        -22.3409   8.1326  15.0477 H              1 <1>                0.0245
     28 H13        -21.0346   8.0968  16.2560 H              1 <1>                0.0245
     29 HN1        -24.1248   8.3702  18.2138 H              1 <1>                0.1223
     30 H2         -22.4293   6.7800  17.7715 H              1 <1>                0.0461
     31 HN2        -24.9846  13.3669  23.2110 H              1 <1>                0.1546
     32 HO2        -25.7739  14.5139  20.6489 H              1 <1>                0.2922
     33 H31        -24.9500   7.1111  16.2244 H              1 <1>                0.0328
     34 H32        -24.4795   5.8565  17.3224 H              1 <1>                0.0328
     35 HO4        -24.0047   8.2189  19.7028 H              1 <1>                0.2103
     36 H5         -23.5532   3.7865  16.5070 H              1 <1>                0.0621
     37 H6         -23.0271   2.3187  14.6316 H              1 <1>                0.0654
     38 H8         -23.4275   5.6368  11.9436 H              1 <1>                0.0654
     39 H9         -23.9428   7.1042  13.8394 H              1 <1>                0.0621
     40 H101       -22.7238   1.2279  11.2007 H              1 <1>                0.0660
     41 H102       -22.3929   1.2836  12.9485 H              1 <1>                0.0660
     42 H103       -24.0630   1.4375  12.3540 H              1 <1>                0.0660
     43 H111       -22.4330  10.4423  17.7714 H              1 <1>                0.0453
     44 H112       -21.3968   9.0521  17.8892 H              1 <1>                0.0453
     45 H12        -21.4856   9.4760  20.1046 H              1 <1>                0.0656
     46 H14        -23.2839  10.2581  22.1810 H              1 <1>                0.0641
     47 H17        -24.3477  13.6707  18.7793 H              1 <1>                0.0655
     48 H18        -23.2295  11.6125  18.1237 H              1 <1>                0.0622
     49 H19        -24.6195  12.1357  25.2120 H              1 <1>                0.1255
     50 ****       -23.7621   9.1599  16.7785 LP             1 <1>                0.0000
     51 ****       -23.4331   3.4124  11.3151 LP             1 <1>                0.0000
     52 ****       -21.9004   3.2709  11.8605 LP             1 <1>                0.0000
     53 ****       -24.4147  15.0274  21.3205 LP             1 <1>                0.0000
     54 ****       -25.4809  14.1341  22.1760 LP             1 <1>                0.0000
     55 ****       -23.3627  10.2838  23.4378 LP             1 <1>                0.0000
     56 ****       -23.5801  10.2152  25.1548 LP             1 <1>                0.0000
     57 ****       -23.2684   8.3214  21.1204 LP             1 <1>                0.0000
     58 ****       -22.5902   7.4929  19.8874 LP             1 <1>                0.0000
@<TRIPOS>BOND
    1    1    4 1     
    2    1   26 1     
    3    1   27 1     
    4    1   28 1     
    5    2   17 1     
    6    2    4 1     
    7    2   29 1     
    8    3   16 1     
    9    3   13 1     
   10    4    7 1     
   11    4   30 1     
   12    5   25 am    
   13    5   21 1     
   14    5   31 1     
   15    6   22 1     
   16    6   32 1     
   17    7    9 1     
   18    7   33 1     
   19    7   34 1     
   20    8   25 2     
   21    9   11 ar    
   22    9   15 ar    
   23   10   18 1     
   24   10   35 1     
   25   11   12 ar    
   26   11   36 1     
   27   12   13 ar    
   28   12   37 1     
   29   13   14 ar    
   30   14   15 ar    
   31   14   38 1     
   32   15   39 1     
   33   16   40 1     
   34   16   41 1     
   35   16   42 1     
   36   17   18 1     
   37   17   43 1     
   38   17   44 1     
   39   18   19 1     
   40   18   45 1     
   41   19   20 ar    
   42   19   24 ar    
   43   20   21 ar    
   44   20   46 1     
   45   21   22 ar    
   46   22   23 ar    
   47   23   24 ar    
   48   23   47 1     
   49   24   48 1     
   50   25   49 1     
   51    2   50 1     
   52    3   51 1     
   53    3   52 1     
   54    6   53 1     
   55    6   54 1     
   56    8   55 1     
   57    8   56 1     
   58   10   57 1     
   59   10   58 1     
@<TRIPOS>SUBSTRUCTURE
      1 ****           1
@<TRIPOS>SET
LONE_PAIRS      STATIC     ATOMS    <user>   **** ""
9 50 51 52 53 54 55 56 57 58
DONOR_HYDROGENS      STATIC     ATOMS    <user>   **** ""
4 29 31 32 35
ATOM$BLUE        STATIC     ATOMS    COLORGROUP SYSTEM
9 50 51 52 53 54 55 56 57 58
ATOM$RED        STATIC     ATOMS    COLORGROUP SYSTEM
4 29 31 32 35
@<TRIPOS>COMMENT
> <Gold.Version>
5.5

> <Gold.Id.Protein>
unknown|bialko_beta1|pdb

> <Gold.Protein.ActiveResidues>
 ALA86   ASP87   VAL90   VAL94   VAL95   GLY98   ALA99   LEU101  VAL102  CYS114 
 GLU115  TRP117  THR118  SER119  LEU120  ASP121  VAL122  CYS124  VAL125  THR126 
 SER128  SER173  PHE174  ILE177  CYS199  ASP200  PHE201  TYR207  SER215  PHE299 
 TRP303  PHE306  PHE307  ASN310  PHE325  VAL326  ASN329  TRP330  GLY332  TYR333 
 SER336 

> <Gold.Score>
     Score     S(PLP)   S(hbond)     S(cho)   S(metal)  DE(clash)   DE(tors)     intcor
     74.56     -72.61       1.75       0.00       0.00       0.00       1.97       0.64

> <Gold.PLP.Fitness>
74.5556

> <Gold.PLP.PLP>
-72.6089

> <Gold.PLP.part.hbond>
-4.4014

> <Gold.PLP.part.metal>
0.0000

> <Gold.PLP.part.buried>
-9.3467

> <Gold.PLP.part.nonpolar>
-60.0553

> <Gold.PLP.part.repulsive>
0.2842

> <Gold.PLP.ligand.clash>
0.0000

> <Gold.PLP.ligand.torsion>
1.9683

> <Gold.PLP.Chemscore.Hbond>
1.7475

> <Gold.PLP.Chemscore.CHOScore>
0.0000

> <Gold.PLP.Chemscore.Metal>
0.0000

> <Gold.Chemscore.Hbonds>
donor molecule, donor type, donor heavy atom, donor atom, acceptor molecule, acceptor atom, score
      L1  H     2    29       P1  2066  0.75
      L1  H    10    35       P1  2066  1.00

> <Gold.PLP.Chemscore.Internal.Correction>
0.6408

